
  EPA STORM WATER MANAGEMENT MODEL - VERSION 5.1 (Build 5.1.13)
  --------------------------------------------------------------

  WARNING 03: negative offset ignored for Link 43
  WARNING 03: negative offset ignored for Link 44
  WARNING 04: minimum elevation drop used for Conduit 58
  WARNING 04: minimum elevation drop used for Conduit 59
  WARNING 04: minimum elevation drop used for Conduit 60
  WARNING 04: minimum elevation drop used for Conduit 61
  WARNING 04: minimum elevation drop used for Conduit 63
  WARNING 04: minimum elevation drop used for Conduit 67
  WARNING 04: minimum elevation drop used for Conduit 72
  WARNING 04: minimum elevation drop used for Conduit 73
  WARNING 04: minimum elevation drop used for Conduit 74
  WARNING 04: minimum elevation drop used for Conduit 78
  WARNING 04: minimum elevation drop used for Conduit 56
  WARNING 02: maximum depth increased for Node 22
  WARNING 02: maximum depth increased for Node 23
  WARNING 02: maximum depth increased for Node 24
  WARNING 02: maximum depth increased for Node 25
  WARNING 02: maximum depth increased for Node 32
  WARNING 02: maximum depth increased for Node 33
  WARNING 02: maximum depth increased for Node 34
  WARNING 02: maximum depth increased for Node 35
  WARNING 02: maximum depth increased for Node 36
  WARNING 02: maximum depth increased for Node 37
  WARNING 02: maximum depth increased for Node 40
  WARNING 02: maximum depth increased for Node 41
  WARNING 02: maximum depth increased for Node 42
  WARNING 02: maximum depth increased for Node 43_depth
  WARNING 02: maximum depth increased for Node 44
  WARNING 02: maximum depth increased for Node 46
  WARNING 02: maximum depth increased for Node 47
  WARNING 02: maximum depth increased for Node 50
  WARNING 02: maximum depth increased for Node 51
  WARNING 02: maximum depth increased for Node 52
  WARNING 02: maximum depth increased for Node 53
  WARNING 02: maximum depth increased for Node 55
  WARNING 02: maximum depth increased for Node 56a
  WARNING 02: maximum depth increased for Node 57
  WARNING 02: maximum depth increased for Node 58
  WARNING 02: maximum depth increased for Node 59
  WARNING 02: maximum depth increased for Node 60
  WARNING 02: maximum depth increased for Node 61
  WARNING 02: maximum depth increased for Node 62
  WARNING 02: maximum depth increased for Node 63
  WARNING 02: maximum depth increased for Node 64
  WARNING 02: maximum depth increased for Node 65
  WARNING 02: maximum depth increased for Node 66
  WARNING 02: maximum depth increased for Node 67
  WARNING 02: maximum depth increased for Node 68
  WARNING 02: maximum depth increased for Node 69
  WARNING 02: maximum depth increased for Node 70
  WARNING 02: maximum depth increased for Node 71
  WARNING 02: maximum depth increased for Node 72
  WARNING 02: maximum depth increased for Node 73
  WARNING 02: maximum depth increased for Node 74
  WARNING 02: maximum depth increased for Node 75
  WARNING 02: maximum depth increased for Node 76
  WARNING 02: maximum depth increased for Node 77
  WARNING 02: maximum depth increased for Node 78
  WARNING 02: maximum depth increased for Node 79
  WARNING 02: maximum depth increased for Node 92
  WARNING 02: maximum depth increased for Node 134
  WARNING 02: maximum depth increased for Node 135
  WARNING 02: maximum depth increased for Node 136
  WARNING 02: maximum depth increased for Node 138
  WARNING 02: maximum depth increased for Node 139
  WARNING 02: maximum depth increased for Node 140
  WARNING 02: maximum depth increased for Node 141
  WARNING 02: maximum depth increased for Node 142
  WARNING 02: maximum depth increased for Node 143
  WARNING 02: maximum depth increased for Node 158
  WARNING 02: maximum depth increased for Node 163
  WARNING 02: maximum depth increased for Node 164
  WARNING 02: maximum depth increased for Node 165
  WARNING 02: maximum depth increased for Node 166
  WARNING 02: maximum depth increased for Node 167
  WARNING 02: maximum depth increased for Node 168
  WARNING 02: maximum depth increased for Node 170
  WARNING 02: maximum depth increased for Node 171
  WARNING 02: maximum depth increased for Node 173
  WARNING 02: maximum depth increased for Node 174
  
  *********************************************************
  NOTE: The summary statistics displayed in this report are
  based on results found at every computational time step,  
  not just on results from each reporting time step.
  *********************************************************
  
  ****************
  Analysis Options
  ****************
  Flow Units ............... CMS
  Process Models:
    Rainfall/Runoff ........ YES
    RDII ................... NO
    Snowmelt ............... NO
    Groundwater ............ NO
    Flow Routing ........... YES
    Ponding Allowed ........ YES
    Water Quality .......... NO
  Infiltration Method ...... CURVE_NUMBER
  Flow Routing Method ...... DYNWAVE
  Surcharge Method ......... EXTRAN
  Starting Date ............ 09/01/2018 00:00:00
  Ending Date .............. 09/01/2019 00:00:00
  Antecedent Dry Days ...... 0.0
  Report Time Step ......... 00:00:00
  Wet Time Step ............ 12:00:00
  Dry Time Step ............ 12:00:00
  Routing Time Step ........ 150.00 sec
  Variable Time Step ....... YES
  Maximum Trials ........... 8
  Number of Threads ........ 8
  Head Tolerance ........... 0.001500 m
  
  
  **************************        Volume         Depth
  Runoff Quantity Continuity     hectare-m            mm
  **************************     ---------       -------
  Total Precipitation ......     16584.333     15432.024
  Evaporation Loss .........         0.000         0.000
  Infiltration Loss ........       162.179       150.910
  Surface Runoff ...........     16567.410     15416.277
  Final Storage ............         3.162         2.942
  Continuity Error (%) .....        -0.895
  
  
  **************************        Volume        Volume
  Flow Routing Continuity        hectare-m      10^6 ltr
  **************************     ---------     ---------
  Dry Weather Inflow .......      4099.221     40992.639
  Wet Weather Inflow .......     16567.355    165675.280
  Groundwater Inflow .......         0.000         0.000
  RDII Inflow ..............         0.000         0.000
  External Inflow ..........         0.000         0.000
  External Outflow .........     18326.161    183263.517
  Flooding Loss ............      3760.932     37609.712
  Evaporation Loss .........         0.000         0.000
  Exfiltration Loss ........         0.000         0.000
  Initial Stored Volume ....         0.067         0.673
  Final Stored Volume ......         0.435         4.349
  Continuity Error (%) .....        -6.875
  
  
  *************************
  Highest Continuity Errors
  *************************
  Node 47a (-7.27%)
  Node 47b (-2.64%)
  Node 48 (-2.06%)
  
  
  ***************************
  Time-Step Critical Elements
  ***************************
  Link 47b (94.81%)
  Link 56 (3.47%)
  Link 48 (1.71%)
  
  
  ********************************
  Highest Flow Instability Indexes
  ********************************
  Link 47b (130)
  Link 47a (128)
  Link 47 (121)
  Link 48 (120)
  Link 46 (114)
  
  
  *************************
  Routing Time Step Summary
  *************************
  Minimum Time Step           :     9.00 sec
  Average Time Step           :     9.00 sec
  Maximum Time Step           :     9.00 sec
  Percent in Steady State     :     0.00
  Average Iterations per Step :     3.23
  Percent Not Converging      :    12.67
  
  
  ***************************
  Subcatchment Runoff Summary
  ***************************
  
  ------------------------------------------------------------------------------------------------------------------------------
                            Total      Total      Total      Total     Imperv       Perv      Total       Total     Peak  Runoff
                           Precip      Runon       Evap      Infil     Runoff     Runoff     Runoff      Runoff   Runoff   Coeff
  Subcatchment                 mm         mm         mm         mm         mm         mm         mm    10^6 ltr      CMS
  ------------------------------------------------------------------------------------------------------------------------------
  ws-1                   15432.02       0.00       0.00      66.40    3172.77   12207.28   15380.05       69.21     0.05   0.997
  ws-2                   15432.02       0.00       0.00      67.16    3031.27   12339.26   15370.52       38.43     0.03   0.996
  ws-3                   15432.02       0.00       0.00      76.11    7047.93    8410.54   15458.47     1496.39     1.18   1.002
  ws-7                   15432.02       0.00       0.00      55.70    5147.46   10235.77   15383.24       36.92     0.03   0.997
  ws-8                   15432.02       0.00       0.00      45.89    6959.30    8442.51   15401.81      140.16     0.11   0.998
  ws-9                   15432.02       0.00       0.00      45.82    6971.70    8417.18   15388.89       44.63     0.04   0.997
  ws-10                  15432.02       0.00       0.00      19.54   11822.97    3589.32   15412.29       43.15     0.03   0.999
  ws-11                  15432.02       0.00       0.00      21.49   11464.40    3951.38   15415.78      229.70     0.18   0.999
  ws-12                  15432.02       0.00       0.00      26.09   10613.88    4793.61   15407.49       55.47     0.04   0.998
  ws-13                  15432.02       0.00       0.00      46.41   10539.85    4863.85   15403.69      546.83     0.43   0.998
  ws-14                  15432.02       0.00       0.00      27.19   10411.69    4993.79   15405.48       32.35     0.03   0.998
  ws-15                  15432.02       0.00       0.00      32.97    9343.06    6057.80   15400.86       32.34     0.03   0.998
  ws-16                  15432.02       0.00       0.00      24.78   10856.61    4551.62   15408.23       46.22     0.04   0.998
  ws-17                  15432.02       0.00       0.00      47.51    8272.45    7328.67   15601.12    10933.33     8.53   1.011
  ws-18                  15432.02       0.00       0.00      22.76   11227.99    4180.90   15408.89       26.20     0.02   0.999
  ws-19                  15432.02       0.00       0.00     115.91    7787.02    7582.43   15369.44      608.63     0.48   0.996
  ws-20                  15432.02       0.00       0.00     113.51    7945.61    7467.62   15413.23     2133.20     1.68   0.999
  ws-21                  15432.02       0.00       0.00     477.39    4984.38   10028.78   15013.16       90.08     0.07   0.973
  ws-22                  15432.02       0.00       0.00      93.69    8973.96    6481.30   15455.27     3179.17     2.50   1.002
  ws-23                  15432.02       0.00       0.00     411.98    6261.34    8835.76   15097.10      108.70     0.09   0.978
  ws-24                  15432.02       0.00       0.00     449.13    7460.53    7553.93   15014.45       25.52     0.02   0.973
  ws-25                  15432.02       0.00       0.00     289.78    8046.06    7167.14   15213.21      500.52     0.40   0.986
  ws-26                  15432.02       0.00       0.00     106.75    7756.50    7664.12   15420.62     1606.84     1.27   0.999
  ws-27                  15432.02       0.00       0.00     471.24    5227.07    9783.28   15010.36       70.55     0.06   0.973
  ws-28                  15432.02       0.00       0.00     439.86    5918.85    9128.87   15047.72      150.48     0.12   0.975
  ws-29                  15432.02       0.00       0.00     561.07    3246.55   11712.00   14958.55      201.94     0.16   0.969
  ws-30                  15432.02       0.00       0.00     147.65    5271.34   10065.39   15336.73      233.12     0.19   0.994
  ws-31                  15432.02       0.00       0.00     616.36    2264.41   12635.18   14899.59       52.15     0.04   0.965
  ws-32                  15432.02       0.00       0.00     674.04    3640.75   11295.75   14936.49     1487.68     1.21   0.968
  ws-35                  15432.02       0.00       0.00     674.98     557.74   14312.00   14869.74      132.34     0.11   0.964
  ws-37                  15432.02       0.00       0.00      58.50    9265.33    6126.94   15392.27      147.77     0.12   0.997
  ws-38                  15432.02       0.00       0.00      40.34    7983.60    7422.10   15405.71      152.52     0.12   0.998
  ws-40                  15432.02       0.00       0.00      21.74   11418.19    3993.45   15411.64       29.28     0.02   0.999
  ws-41                  15432.02       0.00       0.00      15.78   12519.37    2904.57   15423.94      464.26     0.37   0.999
  ws-42                  15432.02       0.00       0.00      25.46   10731.26    4686.86   15418.11      453.30     0.36   0.999
  ws-43                  15432.02       0.00       0.00      37.71    8469.46    6933.06   15402.52      115.52     0.09   0.998
  ws-45                  15432.02       0.00       0.00      66.31    7732.49    7675.54   15408.03     2342.03     1.85   0.998
  ws-46                  15432.02       0.00       0.00      20.79   11602.63    3870.64   15473.27     2670.70     2.10   1.003
  ws-47                  15432.02       0.00       0.00      34.21    9115.75    6285.05   15400.79      101.65     0.08   0.998
  ws-48                  15432.02       0.00       0.00      15.91   12492.83    2922.73   15415.57       41.62     0.03   0.999
  ws-49                  15432.02       0.00       0.00     132.07   13995.56    1307.76   15303.32      169.87     0.14   0.992
  ws-50                  15432.02       0.00       0.00       1.25   15199.73     230.37   15430.10       97.21     0.08   1.000
  ws-52                  15432.02       0.00       0.00      32.71    9391.81    6012.24   15404.05      257.25     0.20   0.998
  ws-53                  15432.02       0.00       0.00      21.17   11522.43    3890.35   15412.78     1202.20     0.95   0.999
  ws-54                  15432.02       0.00       0.00      30.02    9887.65    5513.90   15401.54       63.15     0.05   0.998
  ws-55                  15432.02       0.00       0.00      71.51    7553.51    7878.98   15432.49     1790.18     1.41   1.000
  ws-57                  15432.02       0.00       0.00      77.16    1185.88   14223.69   15409.57       58.56     0.05   0.999
  ws-58                  15432.02       0.00       0.00      57.34    4846.05   10609.83   15455.88      395.67     0.31   1.002
  ws-60                  15432.02       0.00       0.00      40.09    8030.22    7369.52   15399.74       70.84     0.06   0.998
  ws-61                  15432.02       0.00       0.00      38.12    8393.58    7011.35   15404.93      120.16     0.09   0.998
  ws-62                  15432.02       0.00       0.00      41.12    7839.52    7556.06   15395.58       49.27     0.04   0.998
  ws-63                  15432.02       0.00       0.00      31.55    9606.43    5815.46   15421.89      562.90     0.44   0.999
  ws-64                  15432.02       0.00       0.00      88.29    8115.78    7304.37   15420.16     1481.89     1.17   0.999
  ws-65                  15432.02       0.00       0.00      37.09    8583.35    6823.09   15406.44      169.47     0.13   0.998
  ws-66                  15432.02       0.00       0.00      39.16    8201.46    7203.00   15404.46     2319.93     1.83   0.998
  ws-69                  15432.02       0.00       0.00      88.23    7430.94    8024.00   15454.93     1730.96     1.36   1.001
  ws-70                  15432.02       0.00       0.00      38.03    8410.48    7023.83   15434.31      226.89     0.18   1.000
  ws-71                  15432.02       0.00       0.00      69.50    8106.04    7301.99   15408.03     7724.09     6.10   0.998
  ws-73                  15432.02       0.00       0.00      32.37    9455.05    5952.08   15407.13      107.85     0.09   0.998
  ws-74                  15432.02       0.00       0.00      73.85    1797.11   13776.29   15573.41      422.04     0.33   1.009
  ws-75                  15432.02       0.00       0.00      87.00    1326.37   14082.05   15408.42      103.24     0.08   0.998
  ws-77                  15432.02       0.00       0.00      88.09    1150.34   14214.87   15365.21       35.34     0.03   0.996
  ws-78                  15432.02       0.00       0.00     643.91    5240.48    9666.35   14906.82      403.98     0.33   0.966
  ws-79                  15432.02       0.00       0.00      61.22    4853.70   10554.52   15408.22      144.84     0.11   0.998
  ws-80                  15432.02       0.00       0.00      51.25    5969.28    9414.89   15384.16        9.23     0.01   0.997
  ws-81                  15432.02       0.00       0.00     372.95    5770.61    9387.31   15157.92      215.24     0.17   0.982
  ws-83                  15432.02       0.00       0.00     525.42    7117.46    7888.41   15005.87      217.59     0.18   0.972
  ws-84                  15432.02       0.00       0.00     490.53   11599.99    3385.85   14985.84    20037.68    16.13   0.971
  ws-87                  15432.02       0.00       0.00       2.15   15035.14     394.19   15429.32       30.86     0.02   1.000
  ws-88                  15432.02       0.00       0.00      25.97   10638.64    4787.85   15426.48      640.20     0.51   1.000
  ws-89                  15432.02       0.00       0.00       1.98   15065.23     363.72   15428.95       30.86     0.02   1.000
  ws-90                  15432.02       0.00       0.00       2.07   15049.14     379.51   15428.65        4.63     0.00   1.000
  ws-91                  15432.02       0.00       0.00       1.42   15169.10     260.28   15429.38        6.17     0.00   1.000
  ws-92                  15432.02       0.00       0.00       6.67   14198.70    1225.82   15424.52       18.51     0.01   1.000
  ws-93                  15432.02       0.00       0.00       8.26   13904.93    1517.90   15422.83        9.25     0.01   0.999
  ws-94                  15432.02       0.00       0.00       7.97   13962.09    1464.54   15426.64      240.66     0.19   1.000
  ws-95                  15432.02       0.00       0.00       8.18   13921.70    1501.67   15423.37       38.56     0.03   0.999
  ws-96                  15432.02       0.00       0.00       2.84   14906.39     521.06   15427.45       10.80     0.01   1.000
  ws-97                  15432.02       0.00       0.00      12.50   13128.59    2295.76   15424.35      121.85     0.10   1.000
  ws-98                  15432.02       0.00       0.00      17.33   12231.17    3184.60   15415.77      117.16     0.09   0.999
  ws-101                 15432.02       0.00       0.00      25.85   10658.61    4751.73   15410.34       83.22     0.07   0.999
  ws-102                 15432.02       0.00       0.00      24.35   10934.66    4475.56   15410.22       73.97     0.06   0.999
  ws-103                 15432.02       0.00       0.00      31.44    9627.27    5778.42   15405.69       10.78     0.01   0.998
  ws-105                 15432.02       0.00       0.00      24.04   10992.98    4417.58   15410.56       50.86     0.04   0.999
  ws-106                 15432.02       0.00       0.00       6.19   14288.38    1136.79   15425.17       33.94     0.03   1.000
  ws-107                 15432.02       0.00       0.00       8.43   13873.71    1549.33   15423.04       38.56     0.03   0.999
  ws-108                 15432.02       0.00       0.00      20.00   11739.64    3684.85   15424.48      553.74     0.44   1.000
  ws-112                 15432.02       0.00       0.00      31.11    9687.68    5719.75   15407.43      130.96     0.10   0.998
  ws-114                 15432.02       0.00       0.00      65.28    7339.34    8031.14   15370.49        7.69     0.01   0.996
  ws-115                 15432.02       0.00       0.00      45.66    9770.70    5617.73   15388.44        9.23     0.01   0.997
  ws-116                 15432.02       0.00       0.00      37.34    9380.62    6084.72   15465.34     3547.77     2.79   1.002
  ws-118                 15432.02       0.00       0.00      45.06    7111.74    8277.39   15389.13        6.16     0.00   0.997
  ws-119                 15432.02       0.00       0.00      20.63   11622.58    3792.81   15415.39      117.16     0.09   0.999
  ws-120                 15432.02       0.00       0.00      30.19    9856.42    5547.43   15403.84       30.81     0.02   0.998
  ws-121                 15432.02       0.00       0.00      24.73   10864.47    4543.61   15408.08       40.06     0.03   0.998
  ws-122                 15432.02       0.00       0.00      23.14   11159.47    4254.27   15413.74      163.39     0.13   0.999
  ws-123                 15432.02       0.00       0.00      22.78   11230.09    4218.83   15448.92     4557.46     3.59   1.001
  ws-124                 15432.02       0.00       0.00      46.74    6801.70    8597.31   15399.01      115.49     0.09   0.998
  ws-127                 15432.02       0.00       0.00      70.60    2396.83   12980.53   15377.36       18.45     0.01   0.996
  ws-128                 15432.02       0.00       0.00      23.28   12136.28    3353.19   15489.47    10579.37     8.31   1.004
  ws-130                 15432.02       0.00       0.00      51.71    5884.02    9502.90   15386.92       15.39     0.01   0.997
  ws-131                 15432.02       0.00       0.00      38.45    8332.02    7062.27   15394.29        3.08     0.00   0.998
  ws-132                 15432.02       0.00       0.00      30.76    9756.80    5719.35   15476.15     2974.53     2.34   1.003
  ws-136                 15432.02       0.00       0.00      77.61    5993.05    9480.04   15473.09     1214.64     0.96   1.003
  ws-137                 15432.02       0.00       0.00      45.94    5657.47    9736.24   15393.72       35.41     0.03   0.998
  ws-138                 15432.02       0.00       0.00      62.09    2221.47   13190.05   15411.52      126.38     0.10   0.999
  ws-139                 15432.02       0.00       0.00      62.78    2074.39   13303.23   15377.63       43.06     0.03   0.996
  ws-141                 15432.02       0.00       0.00      64.02    1811.73   13568.49   15380.22       24.61     0.02   0.997
  ws-142                 15432.02       0.00       0.00      62.62    2108.82   13268.02   15376.84       23.07     0.02   0.996
  ws-143                 15432.02       0.00       0.00      60.21    2621.51   12777.99   15399.50      106.26     0.08   0.998
  ws-144                 15432.02       0.00       0.00      79.50    8172.51    7230.93   15403.44      291.13     0.23   0.998
  ws-145                 15432.02       0.00       0.00      26.87    9713.93    5691.84   15405.78       15.41     0.01   0.998
  ws-146                 15432.02       0.00       0.00      50.76    4632.33   10760.89   15393.22       40.02     0.03   0.997
  ws-148                 15432.02       0.00       0.00     106.14    7773.85    7663.95   15437.80    12571.08     9.91   1.000
  ws-149                 15432.02       0.00       0.00      70.59     414.31   14969.96   15384.26        4.62     0.00   0.997
  ws-150                 15432.02       0.00       0.00     100.53    6360.87    9228.47   15589.33     6941.97     5.42   1.010
  ws-154                 15432.02       0.00       0.00      42.83    6319.41    9091.63   15411.04       98.63     0.08   0.999
  ws-155                 15432.02       0.00       0.00      57.21    4869.45   10519.46   15388.92       24.62     0.02   0.997
  ws-156                 15432.02       0.00       0.00      44.12    7285.06    8119.87   15404.93       80.11     0.06   0.998
  ws-157                 15432.02       0.00       0.00      57.87    6049.39    9378.61   15428.00      242.22     0.19   1.000
  ws-159                 15432.02       0.00       0.00      79.68    6239.68    9351.08   15590.77    11594.92     9.05   1.010
  ws-161                 15432.02       0.00       0.00     172.55    7026.94    8511.55   15538.49    30326.65    23.75   1.007
  ws-162                 15432.02       0.00       0.00     642.25    1286.91   13623.64   14910.56       37.28     0.03   0.966
  ws-163                 15432.02       0.00       0.00     590.66    2769.47   12153.75   14923.22       59.69     0.05   0.967
  ws-165                 15432.02       0.00       0.00     257.72    9857.96    5348.37   15206.33      334.54     0.27   0.985
  ws-166                 15432.02       0.00       0.00      72.38   13902.26    1462.46   15364.72      147.50     0.12   0.996
  ws-167                 15432.02       0.00       0.00     166.45   11915.61    3359.55   15275.15       18.33     0.01   0.990
  ws-168                 15432.02       0.00       0.00     204.32   11000.85    4256.91   15257.76      265.49     0.21   0.989
  ws-169                 15432.02       0.00       0.00     133.44   12536.67    2770.09   15306.76       22.96     0.02   0.992
  ws-170                 15432.02       0.00       0.00     244.38   11007.08    4201.72   15208.81       89.73     0.07   0.986
  ws-171                 15432.02       0.00       0.00     307.48   10568.63    4616.31   15184.93     1740.20     1.39   0.984
  ws-172                 15432.02       0.00       0.00      41.24    7817.31    7606.38   15423.69      237.53     0.19   0.999
  ws-173                 15432.02       0.00       0.00      29.50    9991.24    5502.06   15493.30     3413.19     2.68   1.004
  ws-174                 15432.02       0.00       0.00      17.54   12191.90    3223.08   15414.98       13.87     0.01   0.999
  
  
  ******************
  Node Depth Summary
  ******************
  
  ---------------------------------------------------------------------------------
                                 Average  Maximum  Maximum  Time of Max    Reported
                                   Depth    Depth      HGL   Occurrence   Max Depth
  Node                 Type       Meters   Meters   Meters  days hr:min      Meters
  ---------------------------------------------------------------------------------
  1                    JUNCTION     0.23     1.18    35.88    40  21:55        1.18
  2                    JUNCTION     0.42     2.04    37.06    40  20:04        2.04
  3                    JUNCTION     0.43     2.13    37.46    40  18:26        2.13
  4                    JUNCTION     0.44     2.16    37.81    40  08:47        2.16
  5                    JUNCTION     0.44     2.22    38.18    40  16:27        2.20
  6                    JUNCTION     0.44     2.25    38.53    40  15:01        2.24
  7                    JUNCTION     0.44     2.29    38.88    40  21:09        2.28
  8                    JUNCTION     0.44     2.33    39.24    40  20:36        2.32
  9                    JUNCTION     0.44     2.37    39.59    40  17:46        2.36
  10                   JUNCTION     0.44     2.41    39.94    40  15:31        2.40
  11                   JUNCTION     0.44     2.44    40.29    40  21:43        2.43
  12                   JUNCTION     0.44     2.48    40.64    40  12:58        2.46
  13                   JUNCTION     0.44     2.51    40.99    40  23:52        2.50
  14                   JUNCTION     0.44     2.54    41.33    40  14:50        2.53
  15                   JUNCTION     0.44     2.57    41.67    40  22:21        2.55
  16                   JUNCTION     0.44     2.59    42.02    40  17:06        2.58
  17                   JUNCTION     0.44     2.62    42.36    40  23:34        2.61
  18                   JUNCTION     0.43     2.54    42.60    40  22:50        2.53
  19                   JUNCTION     0.43     2.46    42.83    40  18:26        2.44
  20                   JUNCTION     0.43     2.37    43.06    40  15:29        2.35
  21                   JUNCTION     0.42     2.25    43.29    40  18:14        2.24
  22                   JUNCTION     0.42     2.13    43.49    15  08:05        2.13
  23                   JUNCTION     0.42     2.13    43.83    40  06:27        2.13
  24                   JUNCTION     0.42     2.13    44.15    40  06:28        2.13
  25                   JUNCTION     0.42     2.13    44.27    40  06:28        2.13
  26                   JUNCTION     0.42     2.15    44.47    40  19:27        2.15
  27                   JUNCTION     0.42     2.15    44.80    40  23:53        2.14
  28                   JUNCTION     0.42     2.16    45.12    40  13:35        2.14
  29                   JUNCTION     0.42     2.16    45.57    40  22:43        2.14
  30                   JUNCTION     0.42     2.15    45.92    41  00:25        2.14
  31                   JUNCTION     0.41     2.15    46.24    40  14:01        2.14
  32                   JUNCTION     0.41     2.13    46.54    40  06:46        2.13
  33                   JUNCTION     0.41     2.13    46.86    40  07:07        2.13
  34                   JUNCTION     0.41     2.13    47.17    40  07:06        2.13
  35                   JUNCTION     0.41     2.13    47.52    40  07:06        2.13
  36                   JUNCTION     0.38     1.95    47.65    40  18:24        1.95
  37                   JUNCTION     0.37     1.81    47.88    40  13:04        1.81
  38                   JUNCTION     0.37     1.75    48.14    40  20:43        1.75
  39                   JUNCTION     0.36     1.90    48.35    40  16:58        1.90
  40                   JUNCTION     0.45     1.66    48.60    40  13:07        1.66
  41                   JUNCTION     0.33     1.20    49.72    40  17:02        1.20
  42                   JUNCTION     0.39     1.74    50.45    40  17:02        1.74
  43_depth             JUNCTION     0.58     1.90    50.51    40  23:48        1.90
  44                   JUNCTION     0.24     0.81    51.70    40  15:22        0.81
  45                   JUNCTION     0.53     2.20    53.25    40  20:38        2.20
  46                   JUNCTION     0.90     2.52    53.43    40  17:11        2.52
  47                   JUNCTION     0.52     2.11    53.44   316  04:50        2.08
  48                   JUNCTION     0.49     2.57    54.86    41  00:00        2.57
  49                   JUNCTION     0.46     2.54    54.90    41  00:00        2.54
  50                   JUNCTION     0.84     3.05    55.47    15  12:06        3.05
  51                   JUNCTION     0.26     1.12    55.31    41  06:13        1.11
  52                   JUNCTION     0.39     2.44    56.74    40  09:23        2.44
  53                   JUNCTION     0.52     2.20    56.78    40  12:04        2.20
  54                   JUNCTION     0.23     2.01    56.88    40  12:04        2.00
  55                   JUNCTION     0.11     1.79    57.02    40  12:04        1.78
  56a                  JUNCTION     0.17     1.65    57.16    40  12:04        1.65
  57                   JUNCTION     0.15     1.92    58.00    40  10:51        1.92
  58                   JUNCTION     0.25     2.13    58.21    41  00:00        2.13
  59                   JUNCTION     0.33     2.36    58.44    41  00:00        2.36
  60                   JUNCTION     0.46     2.61    58.69    41  00:01        2.61
  61                   JUNCTION     0.48     2.74    58.83    40  12:00        2.73
  62                   JUNCTION     0.07     1.16    59.07    40  12:00        0.95
  63                   JUNCTION     0.18     2.56    60.47    41  00:00        2.56
  64                   JUNCTION     0.12     2.28    60.44    41  00:00        2.28
  65                   JUNCTION     0.18     3.36    61.79    41  00:01        3.36
  66                   JUNCTION     0.20     3.27    61.79    41  00:00        3.27
  67                   JUNCTION     0.39     3.36    61.88    41  00:00        3.36
  68                   JUNCTION     0.24     2.45    61.98    41  00:00        2.45
  69                   JUNCTION     0.17     2.87    62.67    41  00:00        2.87
  70                   JUNCTION     0.34     2.85    62.68    41  00:00        2.85
  71                   JUNCTION     0.20     2.60    62.65    41  00:00        2.60
  72                   JUNCTION     0.37     2.67    62.71    41  00:00        2.67
  73                   JUNCTION     0.46     2.77    62.82    41  00:01        2.77
  74                   JUNCTION     0.48     2.82    62.86    41  00:01        2.82
  75                   JUNCTION     0.22     2.21    62.87    41  00:01        2.21
  76                   JUNCTION     0.20     1.98    62.94    41  00:00        1.98
  77                   JUNCTION     0.08     1.33    62.90    41  00:00        1.33
  78                   JUNCTION     0.29     1.80    63.37    41  00:00        1.80
  79                   JUNCTION     0.14     1.08    63.26    41  00:00        1.08
  80                   JUNCTION     0.10     0.97    63.58    40  23:59        0.97
  81                   JUNCTION     0.12     1.16    63.99    40  23:59        1.16
  82                   JUNCTION     0.12     1.16    64.19    40  23:59        1.16
  83                   JUNCTION     0.12     1.16    64.40    40  23:59        1.16
  84                   JUNCTION     0.12     1.15    64.61    40  23:59        1.15
  85                   JUNCTION     0.11     0.93    64.60    40  23:59        0.93
  86                   JUNCTION     0.10     0.80    64.68    40  23:58        0.80
  87                   JUNCTION     0.10     0.74    64.83    41  00:00        0.74
  88                   JUNCTION     0.10     0.71    65.00    41  00:00        0.71
  89                   JUNCTION     0.10     0.68    65.19    41  00:00        0.68
  90                   JUNCTION     0.10     0.66    65.45    41  00:00        0.66
  91                   JUNCTION     0.10     0.72    65.71    40  21:56        0.72
  92                   JUNCTION     0.10     0.72    65.92    40  21:56        0.72
  93                   JUNCTION     0.10     0.72    66.13    40  13:58        0.71
  94                   JUNCTION     0.10     0.71    66.34    40  21:45        0.71
  95                   JUNCTION     0.10     0.71    66.55    40  21:48        0.71
  96                   JUNCTION     0.10     0.71    66.76    40  21:55        0.71
  97                   JUNCTION     0.10     0.72    66.98    40  21:55        0.71
  98                   JUNCTION     0.13     0.90    67.19    40  21:54        0.90
  99                   JUNCTION     0.14     0.97    67.29    40  21:55        0.97
  100                  JUNCTION     0.15     1.02    67.37    40  23:36        1.02
  101                  JUNCTION     0.15     1.07    67.45    40  21:45        1.07
  102                  JUNCTION     0.14     1.06    67.50    40  21:39        1.06
  103                  JUNCTION     0.14     1.06    67.55    40  21:39        1.06
  104                  JUNCTION     0.14     1.05    67.61    40  21:54        1.05
  105                  JUNCTION     0.14     1.05    67.67    40  21:54        1.05
  106                  JUNCTION     0.14     1.04    67.72    40  21:54        1.04
  107                  JUNCTION     0.14     1.04    67.78    40  21:53        1.04
  108                  JUNCTION     0.14     1.04    67.83    40  21:53        1.04
  109                  JUNCTION     0.13     1.02    67.88    40  21:53        1.02
  110                  JUNCTION     0.13     1.02    67.93    40  21:53        1.02
  111                  JUNCTION     0.13     1.01    67.98    40  21:53        1.01
  112                  JUNCTION     0.13     1.00    68.06    40  23:41        1.00
  113                  JUNCTION     0.10     0.83    68.48    40  21:47        0.83
  114                  JUNCTION     0.09     0.80    69.15    40  23:41        0.80
  115                  JUNCTION     0.09     0.79    69.74    40  23:40        0.79
  116                  JUNCTION     0.09     0.79    70.60    40  19:10        0.79
  117                  JUNCTION     0.18     1.65    72.07    40  17:01        1.64
  118                  JUNCTION     0.21     2.41    73.43    40  21:14        2.41
  119                  JUNCTION     0.10     1.79    73.40    14  10:36        1.79
  120                  JUNCTION     0.07     1.21    73.42    14  10:36        1.21
  121                  JUNCTION     0.05     0.76    73.58    40  12:00        0.76
  122                  JUNCTION     0.05     0.61    74.06    40  12:00        0.61
  123                  JUNCTION     0.05     0.60    74.74    40  12:00        0.60
  124                  JUNCTION     0.07     1.22    73.74    40  23:04        1.21
  125                  JUNCTION     0.11     1.23    74.05    40  13:22        1.22
  126                  JUNCTION     0.10     1.22    74.35    40  07:21        1.22
  127                  JUNCTION     0.10     1.26    74.69    40  13:20        1.25
  128                  JUNCTION     0.10     1.29    75.04    40  07:36        1.29
  129                  JUNCTION     0.02     0.93    75.05    40  07:39        0.93
  130                  JUNCTION     0.00     0.44    75.05    40  07:42        0.44
  131                  JUNCTION     0.00     0.01    75.11    40  12:24        0.01
  132                  JUNCTION     0.10     0.65    65.59    40  23:38        0.65
  133                  JUNCTION     0.09     0.51    65.60    40  23:38        0.51
  134                  JUNCTION     0.09     0.44    65.68    40  23:37        0.44
  135                  JUNCTION     0.09     0.41    65.80    40  12:05        0.41
  136                  JUNCTION     0.09     0.40    65.94    40  12:01        0.40
  137                  JUNCTION     0.13     0.46    66.02    40  12:01        0.46
  138                  JUNCTION     0.24     0.73    66.31    40  12:01        0.73
  139                  JUNCTION     0.27     0.82    66.41    40  12:02        0.82
  140                  JUNCTION     0.29     0.88    66.48    40  12:02        0.88
  141                  JUNCTION     0.30     0.93    66.55    40  12:02        0.93
  142                  JUNCTION     0.32     0.97    66.61    40  12:02        0.97
  143                  JUNCTION     0.33     1.00    66.66    10  04:24        1.00
  144                  JUNCTION     0.33     1.05    66.72    40  13:57        1.05
  145                  JUNCTION     0.34     1.06    66.75    10  01:53        1.06
  146                  JUNCTION     0.37     1.26    66.97    40  11:36        1.26
  147                  JUNCTION     0.40     1.44    67.16    14  03:34        1.44
  148                  JUNCTION     0.45     1.78    67.52    14  05:04        1.78
  149                  JUNCTION     0.46     2.23    67.99    40  06:47        2.23
  150                  JUNCTION     0.26     2.73    69.11    40  23:26        2.73
  151                  JUNCTION     0.21     2.36    69.18    40  23:58        2.36
  152                  JUNCTION     0.20     2.11    69.53    40  23:57        2.11
  153                  JUNCTION     0.19     1.87    69.89    40  21:34        1.87
  154                  JUNCTION     0.19     1.62    70.24    40  23:56        1.62
  155                  JUNCTION     0.18     1.29    70.50    40  20:47        1.28
  156                  JUNCTION     0.17     0.92    70.74    40  06:26        0.92
  157                  JUNCTION     0.15     0.66    71.08    14  06:18        0.66
  158                  JUNCTION     0.13     0.50    71.52    10  08:14        0.50
  160                  JUNCTION     0.26     2.07    47.61    40  23:59        2.06
  161                  JUNCTION     0.21     2.03    47.68    40  23:23        2.03
  162                  JUNCTION     0.17     1.94    47.68    40  23:10        1.94
  163                  JUNCTION     0.14     1.85    47.68    40  23:54        1.85
  164                  JUNCTION     0.12     1.76    47.68    40  23:12        1.76
  165                  JUNCTION     0.11     1.67    47.68    40  23:53        1.67
  166                  JUNCTION     0.09     1.58    47.68    40  23:32        1.58
  167                  JUNCTION     0.07     1.40    47.68    40  23:17        1.40
  168                  JUNCTION     0.06     1.31    47.68    40  23:55        1.31
  169                  JUNCTION     0.06     1.22    47.68    40  23:55        1.22
  170                  JUNCTION     0.05     1.13    47.68    40  23:54        1.13
  171                  JUNCTION     0.04     0.97    47.68    40  23:55        0.97
  172                  JUNCTION     0.14     1.32    48.60    40  18:50        1.32
  173                  JUNCTION     0.03     0.59    48.61    40  17:04        0.59
  174                  JUNCTION     0.00     0.01    49.36    40  12:10        0.01
  47a                  JUNCTION     0.22     2.26    54.47    14  06:46        1.68
  47b                  JUNCTION     0.42     2.23    54.47    14  06:44        2.23
  56b                  JUNCTION     0.25     2.36    57.86    40  10:07        2.36
  159                  JUNCTION     0.13     0.50    72.01    10  08:47        0.50
  0                    OUTFALL      2.00     2.00    34.39     0  00:00        2.00
  
  
  *******************
  Node Inflow Summary
  *******************
  
  -------------------------------------------------------------------------------------------------
                                  Maximum  Maximum                  Lateral       Total        Flow
                                  Lateral    Total  Time of Max      Inflow      Inflow     Balance
                                   Inflow   Inflow   Occurrence      Volume      Volume       Error
  Node                 Type           CMS      CMS  days hr:min    10^6 ltr    10^6 ltr     Percent
  -------------------------------------------------------------------------------------------------
  1                    JUNCTION     0.055   57.439    40  18:26        69.2    1.83e+05       0.010
  2                    JUNCTION     0.030   51.053    40  12:42        38.4    1.83e+05       0.005
  3                    JUNCTION     1.178   51.025    40  16:54     1.5e+03    1.83e+05       0.001
  4                    JUNCTION     0.000   50.395    40  15:35           0    1.82e+05       0.000
  5                    JUNCTION     0.000   50.414    40  20:27           0    1.82e+05      -0.000
  6                    JUNCTION     0.000   50.407    40  23:13           0    1.82e+05      -0.000
  7                    JUNCTION     0.029   50.398    40  11:51        36.9    1.82e+05       0.000
  8                    JUNCTION     0.111   50.374    40  20:19         140    1.82e+05       0.000
  9                    JUNCTION     0.035   50.299    40  23:33        44.6    1.82e+05       0.000
  10                   JUNCTION     0.034   50.238    40  16:27        43.2    1.81e+05       0.000
  11                   JUNCTION     0.181   50.215    40  13:04         230    1.81e+05      -0.000
  12                   JUNCTION     0.044   50.014    40  16:52        55.5    1.81e+05       0.000
  13                   JUNCTION     0.432   49.976    40  18:36         547    1.81e+05       0.000
  14                   JUNCTION     0.026   49.552    40  17:51        32.4    1.81e+05       0.000
  15                   JUNCTION     0.026   49.536    40  17:09        32.3    1.81e+05       0.000
  16                   JUNCTION     0.037   49.493    40  19:22        46.2    1.81e+05       0.000
  17                   JUNCTION     8.530   49.481    40  21:55    1.09e+04    1.81e+05       0.000
  18                   JUNCTION     0.021   44.787    41  06:59        26.2     1.7e+05       0.000
  19                   JUNCTION     0.482   44.777    41  06:59         609     1.7e+05       0.000
  20                   JUNCTION     1.685   44.560    41  06:59    2.13e+03    1.69e+05       0.000
  21                   JUNCTION     0.073   43.854    41  07:00        90.1    1.67e+05       0.000
  22                   JUNCTION     2.504   49.944    40  12:00    3.18e+03    1.69e+05       0.000
  23                   JUNCTION     0.088   47.528    40  12:00         109    1.66e+05      -0.000
  24                   JUNCTION     0.020   47.461    41  00:00        25.5    1.65e+05       0.000
  25                   JUNCTION     0.400   49.324    40  16:39         501    1.66e+05      -0.000
  26                   JUNCTION     1.268   48.992    40  16:13    1.61e+03    1.65e+05       0.000
  27                   JUNCTION     0.057   47.764    40  19:40        70.5    1.64e+05      -0.000
  28                   JUNCTION     0.122   47.586    40  18:49         150    1.63e+05      -0.000
  29                   JUNCTION     0.164   47.545    40  20:19         202    1.63e+05       0.000
  30                   JUNCTION     0.185   47.413    73  00:55         233    1.63e+05      -0.000
  31                   JUNCTION     0.043   47.288    41  04:48        52.1    1.63e+05       0.000
  32                   JUNCTION     1.212   48.652    40  12:00    1.49e+03    1.63e+05       0.000
  33                   JUNCTION     0.000   47.440    40  07:25           0    1.61e+05       0.000
  34                   JUNCTION     0.000   47.441    73  01:06           0    1.61e+05       0.000
  35                   JUNCTION     0.108   59.864    40  23:57         132    1.62e+05       0.000
  36                   JUNCTION     0.000   33.793    40  23:07           0    1.29e+05       0.000
  37                   JUNCTION     0.117   33.795    40  15:14         148    1.29e+05      -0.000
  38                   JUNCTION     0.121   33.683    40  19:48         153    1.29e+05       0.000
  39                   JUNCTION     0.000   33.550    40  21:07           0    1.29e+05       0.000
  40                   JUNCTION     0.023   33.549    40  17:43        29.3    1.29e+05       0.000
  41                   JUNCTION     0.366   30.645    40  12:44         464    1.25e+05       0.001
  42                   JUNCTION     0.358   30.282    40  13:03         453    1.25e+05       0.004
  43_depth             JUNCTION     0.091   29.927    40  15:18         116    1.24e+05       0.005
  44                   JUNCTION     0.000   29.837    40  21:12           0    1.24e+05       0.028
  45                   JUNCTION     1.850   32.405   100  13:24    2.34e+03    1.24e+05       0.021
  46                   JUNCTION     2.101   49.673    63  03:46    2.67e+03    1.21e+05      -0.684
  47                   JUNCTION     0.080   41.179   295  09:46         102    1.19e+05       0.154
  48                   JUNCTION     0.033   52.599    56  08:51        41.6    1.14e+05      -2.016
  49                   JUNCTION     0.135   28.536    40  06:10         170    1.14e+05       0.038
  50                   JUNCTION     0.077   37.706    41  00:00        97.2    1.15e+05      -0.000
  51                   JUNCTION     0.000   37.630    40  09:25           0    1.15e+05       0.001
  52                   JUNCTION     0.203   40.508    40  12:05         257    1.15e+05      -0.009
  53                   JUNCTION     2.249   40.285    40  12:05    4.22e+04    1.15e+05       0.010
  54                   JUNCTION     0.050   37.994    40  11:56        63.1     7.3e+04       0.000
  55                   JUNCTION     1.412   37.905    40  12:06    1.79e+03     7.3e+04       0.001
  56a                  JUNCTION     0.000   36.611    40  10:14           0    7.12e+04       0.000
  57                   JUNCTION     0.046   42.897    41  00:00        58.6    7.15e+04       0.003
  58                   JUNCTION     0.312   42.853    41  00:00         396    7.14e+04       0.008
  59                   JUNCTION     0.000   42.548    41  00:01           0     7.1e+04       0.003
  60                   JUNCTION     0.056   43.055    40  12:00        70.8    7.11e+04       0.015
  61                   JUNCTION     0.095   45.683    40  12:00         120    7.07e+04      -0.373
  62                   JUNCTION     0.039   78.322    41  00:00        49.3    7.08e+04       0.306
  63                   JUNCTION     0.444   45.192    40  12:00         563    7.06e+04      -0.270
  64                   JUNCTION     1.170   41.929    41  00:00    1.48e+03       7e+04      -0.014
  65                   JUNCTION     0.134   40.739    41  00:00         169    6.85e+04      -0.001
  66                   JUNCTION     1.833   40.604    40  23:59    2.32e+03    6.83e+04       0.000
  67                   JUNCTION     0.000   38.772    40  23:59           0     6.6e+04      -0.002
  68                   JUNCTION     0.000   38.772    41  00:00           0     6.6e+04       0.007
  69                   JUNCTION     1.363   38.773    41  00:00    1.73e+03     6.6e+04      -0.010
  70                   JUNCTION     0.179   37.411    40  23:58         227    6.43e+04       0.040
  71                   JUNCTION     6.102   37.233    40  23:58    7.72e+03    6.41e+04       0.008
  72                   JUNCTION     0.000   31.137    41  00:01           0    5.64e+04      -0.002
  73                   JUNCTION     0.085   31.136    41  00:01         108    5.64e+04       0.000
  74                   JUNCTION     0.330   31.051    41  00:01         422    5.63e+04       0.000
  75                   JUNCTION     0.082   30.723    41  00:00         103    5.58e+04       0.000
  76                   JUNCTION     0.000   30.643    41  00:00           0    5.57e+04       0.000
  77                   JUNCTION     0.028   30.643    41  00:00        35.3    5.57e+04       0.001
  78                   JUNCTION     0.330   30.615    41  00:00         404    5.57e+04       0.000
  79                   JUNCTION     0.114   30.286    41  00:00         145    5.53e+04      -0.000
  80                   JUNCTION     0.007   30.171    40  23:59        9.23    5.52e+04       0.000
  81                   JUNCTION     0.173   30.164    40  23:59         215    5.51e+04      -0.000
  82                   JUNCTION     0.000   29.991    40  23:59           0    5.49e+04       0.000
  83                   JUNCTION     0.176   29.991    40  23:59         218    5.49e+04       0.000
  84                   JUNCTION    16.135   29.814    40  23:59       2e+04    5.47e+04       0.000
  85                   JUNCTION     0.000   13.682    41  00:01           0    3.47e+04      -0.000
  86                   JUNCTION     0.000   13.682    40  13:59           0    3.47e+04      -0.000
  87                   JUNCTION     0.024   13.681    40  13:59        30.9    3.47e+04      -0.000
  88                   JUNCTION     0.505   13.657    40  13:59         640    3.46e+04       0.000
  89                   JUNCTION     0.024   13.152    40  13:59        30.9     3.4e+04      -0.000
  90                   JUNCTION     0.004   13.127    40  13:58        4.63     3.4e+04       0.000
  91                   JUNCTION     0.005    8.456    40  21:46        6.17    1.94e+04      -0.001
  92                   JUNCTION     0.015    8.451    40  21:46        18.5    1.94e+04       0.000
  93                   JUNCTION     0.007    8.439    40  21:55        9.25    1.94e+04      -0.000
  94                   JUNCTION     0.190    8.438    40  21:55         241    1.94e+04      -0.001
  95                   JUNCTION     0.030    8.250    40  21:55        38.6    1.91e+04       0.037
  96                   JUNCTION     0.009    8.315    40  21:55        10.8    1.91e+04      -0.021
  97                   JUNCTION     0.096    8.669    40  21:55         122    1.92e+04       0.553
  98                   JUNCTION     0.093    8.111    40  21:54         117     1.9e+04      -0.550
  99                   JUNCTION     0.000    8.012    40  21:54           0    1.88e+04      -0.018
  100                  JUNCTION     0.000    8.010    40  21:39           0    1.88e+04      -0.002
  101                  JUNCTION     0.066    8.010    40  21:39        83.2    1.88e+04      -0.000
  102                  JUNCTION     0.058    7.944    40  21:54          74    1.88e+04      -0.000
  103                  JUNCTION     0.009    7.886    40  21:54        10.8    1.87e+04      -0.000
  104                  JUNCTION     0.000    7.877    40  23:42           0    1.87e+04      -0.000
  105                  JUNCTION     0.040    7.877    40  23:42        50.9    1.87e+04      -0.000
  106                  JUNCTION     0.027    7.837    40  23:42        33.9    1.86e+04       0.000
  107                  JUNCTION     0.030    7.810    40  23:42        38.6    1.86e+04      -0.000
  108                  JUNCTION     0.437    7.780    40  23:42         554    1.85e+04      -0.000
  109                  JUNCTION     0.000    7.343    40  23:42           0     1.8e+04       0.000
  110                  JUNCTION     0.000    7.343    40  23:41           0     1.8e+04      -0.000
  111                  JUNCTION     0.000    7.343    40  23:41           0     1.8e+04       0.000
  112                  JUNCTION     0.103    7.343    40  23:41         131     1.8e+04      -0.000
  113                  JUNCTION     0.000    7.240    40  23:41           0    1.79e+04      -0.000
  114                  JUNCTION     0.006    7.240    40  19:11        7.69    1.79e+04      -0.000
  115                  JUNCTION     0.007    7.238    40  17:01        9.23    1.79e+04       0.000
  116                  JUNCTION     2.792    7.229    40  15:10    3.55e+03    1.78e+04      -0.003
  117                  JUNCTION     0.000    4.456    72  11:28           0    1.43e+04       0.008
  118                  JUNCTION     0.005    5.501    40  20:16        6.16    1.45e+04      -0.011
  119                  JUNCTION     0.093    2.544    40  14:31         117    4.67e+03      -0.003
  120                  JUNCTION     0.024    3.776    40  12:00        30.8    4.79e+03      -0.000
  121                  JUNCTION     0.032    3.751    40  12:00        40.1    4.76e+03      -0.000
  122                  JUNCTION     0.129    3.720    40  12:00         163    4.72e+03      -0.000
  123                  JUNCTION     3.591    3.591    40  12:00    4.56e+03    4.56e+03      -0.000
  124                  JUNCTION     0.091    5.497    40  22:22         115    1.05e+04      -0.001
  125                  JUNCTION     0.000    5.417    73  00:16           0    1.04e+04      -0.000
  126                  JUNCTION     0.000    5.604    40  21:35           0    1.05e+04      -0.000
  127                  JUNCTION     0.015    5.603    40  17:17        18.5    1.05e+04       0.000
  128                  JUNCTION     8.313    8.328    41  00:00    1.06e+04    1.06e+04      -0.000
  129                  JUNCTION     0.000    0.034    40  06:57           0        18.6       0.005
  130                  JUNCTION     0.012    0.025    40  06:59        15.4        18.5      -0.013
  131                  JUNCTION     0.002    0.002    40  12:00        3.08        3.08      -0.003
  132                  JUNCTION     2.339    4.669    40  12:42    2.97e+03    1.46e+04      -0.000
  133                  JUNCTION     0.000    2.329    40  12:42           0    1.16e+04      -0.000
  134                  JUNCTION     0.000    2.329    40  12:01           0    1.16e+04      -0.000
  135                  JUNCTION     0.000    2.329    40  12:01           0    1.16e+04      -0.000
  136                  JUNCTION     0.955    2.329    40  12:01    1.21e+03    1.16e+04       0.000
  137                  JUNCTION     0.028    1.374    40  12:02        35.4    1.04e+04       0.000
  138                  JUNCTION     0.100    1.346    40  12:01         126    1.03e+04       0.000
  139                  JUNCTION     0.034    1.246    40  12:00        43.1    1.02e+04       0.000
  140                  JUNCTION     0.000    1.233    72  00:56           0    1.02e+04       0.000
  141                  JUNCTION     0.019    1.240    72  00:56        24.6    1.02e+04       0.000
  142                  JUNCTION     0.018    1.249    72  00:56        23.1    1.02e+04       0.000
  143                  JUNCTION     0.084    1.418    40  13:59         106    1.03e+04      -0.001
  144                  JUNCTION     0.230    1.348    40  15:54         291    1.02e+04       0.018
  145                  JUNCTION     0.012    2.575    40  21:29        15.4    1.62e+04       0.000
  146                  JUNCTION     0.032    2.563    40  12:10          40    1.61e+04       0.003
  147                  JUNCTION     0.000    3.299    14  05:11           0    1.84e+04       0.000
  148                  JUNCTION     9.911   13.849    41  00:00    1.26e+04    2.44e+04       0.000
  149                  JUNCTION     0.004    5.964    40  23:58        4.62    1.19e+04      -0.001
  150                  JUNCTION     5.420    5.959    40  23:57    6.94e+03    1.19e+04      -0.000
  151                  JUNCTION     0.000    0.710    25  07:13           0       5e+03       0.003
  152                  JUNCTION     0.000    0.712   119  09:22           0       5e+03       0.003
  153                  JUNCTION     0.000    0.709    11  01:15           0       5e+03      -0.003
  154                  JUNCTION     0.078    0.711   295  08:56        98.6       5e+03       0.003
  155                  JUNCTION     0.019    0.704    72  01:21        24.6     4.9e+03      -0.005
  156                  JUNCTION     0.063    0.705    72  01:21        80.1    4.89e+03       0.006
  157                  JUNCTION     0.191    0.794    40  12:00         242    4.94e+03      -0.005
  158                  JUNCTION     0.000    0.702    10  08:49           0    5.05e+03       0.000
  160                  JUNCTION     0.000   26.014    40  23:57           0     3.3e+04       0.000
  161                  JUNCTION    23.751   26.036    40  23:57    3.03e+04    3.31e+04      -0.000
  162                  JUNCTION     0.030    2.313    40  22:24        37.3    2.82e+03       0.005
  163                  JUNCTION     0.049    2.276    41  00:00        59.7    2.77e+03      -0.005
  164                  JUNCTION     0.000    2.220    40  17:04           0     2.7e+03       0.004
  165                  JUNCTION     0.268    2.171    40  15:16         335     2.7e+03      -0.002
  166                  JUNCTION     0.117    1.867    40  18:01         148    2.36e+03       0.001
  167                  JUNCTION     0.015    1.742    40  13:04        18.3    2.19e+03      -0.000
  168                  JUNCTION     0.212    1.723    40  17:55         265    2.15e+03      -0.000
  169                  JUNCTION     0.018    1.506    40  21:11          23    1.87e+03      -0.000
  170                  JUNCTION     0.071    1.481    40  20:35        89.7    1.83e+03       0.000
  171                  JUNCTION     1.395    1.395    41  00:00    1.74e+03    1.74e+03       0.000
  172                  JUNCTION     0.187    2.881    40  17:48         238    3.78e+03       0.001
  173                  JUNCTION     2.681    2.692    40  12:06    3.41e+03    3.43e+03       0.000
  174                  JUNCTION     0.011    0.011    40  12:00        13.9        13.9      -0.001
  47a                  JUNCTION     0.000   91.838    67  12:37           0    1.11e+05      -6.774
  47b                  JUNCTION     0.000   74.869    56  08:51           0    1.17e+05      -2.576
  56b                  JUNCTION     0.000   42.897    41  00:00           0    7.15e+04       0.011
  159                  JUNCTION     9.052    9.052    41  00:00    1.16e+04    1.16e+04      -0.000
  0                    OUTFALL      0.000   51.162    40  18:26           0    1.83e+05       0.000
  
  
  **********************
  Node Surcharge Summary
  **********************
  
  Surcharging occurs when water rises above the top of the highest conduit.
  ---------------------------------------------------------------------
                                               Max. Height   Min. Depth
                                   Hours       Above Crown    Below Rim
  Node                 Type      Surcharged         Meters       Meters
  ---------------------------------------------------------------------
  4                    JUNCTION       58.66          0.032        0.000
  5                    JUNCTION      101.23          0.085        2.174
  6                    JUNCTION      103.28          0.124        1.822
  7                    JUNCTION      104.46          0.162        1.470
  8                    JUNCTION      105.11          0.203        1.115
  9                    JUNCTION      105.31          0.240        0.765
  10                   JUNCTION      105.40          0.278        0.408
  11                   JUNCTION      105.41          0.314        0.058
  12                   JUNCTION      105.33          0.348        2.784
  13                   JUNCTION      105.26          0.382        2.436
  14                   JUNCTION      105.12          0.409        2.093
  15                   JUNCTION      104.96          0.435        1.753
  16                   JUNCTION      104.86          0.464        1.404
  17                   JUNCTION      104.76          0.491        1.063
  18                   JUNCTION      103.15          0.407        0.829
  19                   JUNCTION      101.89          0.326        0.591
  20                   JUNCTION      100.71          0.240        0.360
  21                   JUNCTION       99.33          0.123        0.133
  22                   JUNCTION       97.84          0.000        0.000
  23                   JUNCTION       52.45          0.000        0.000
  24                   JUNCTION       52.30          0.000        0.000
  25                   JUNCTION       52.51          0.000        0.000
  26                   JUNCTION       51.50          0.022        1.767
  27                   JUNCTION       44.68          0.025        1.438
  28                   JUNCTION       40.77          0.027        1.120
  29                   JUNCTION       37.75          0.026        0.669
  30                   JUNCTION       37.48          0.023        0.322
  31                   JUNCTION       37.34          0.018        0.003
  32                   JUNCTION       37.27          0.000        0.000
  33                   JUNCTION       35.45          0.000        0.000
  34                   JUNCTION       35.43          0.000        0.000
  35                   JUNCTION       35.44          0.000        0.000
  48                   JUNCTION      704.36          0.741        0.000
  49                   JUNCTION      725.56          0.726        0.000
  50                   JUNCTION       69.31          0.000        0.000
  52                   JUNCTION       17.61          0.000        0.000
  54                   JUNCTION       18.62          0.153        0.151
  117                  JUNCTION      350.68          0.654        2.277
  118                  JUNCTION      438.95          1.415        1.149
  119                  JUNCTION      262.28          0.793        0.000
  120                  JUNCTION      214.47          0.215        0.000
  124                  JUNCTION      133.09          0.218        1.769
  125                  JUNCTION       56.38          0.228        0.682
  126                  JUNCTION       52.03          0.224        0.000
  127                  JUNCTION       49.94          0.264        0.008
  128                  JUNCTION       37.10          0.285        0.000
  143                  JUNCTION     1388.67          0.000        0.000
  144                  JUNCTION     1600.29          0.049        0.147
  145                  JUNCTION     1622.02          0.062        0.000
  146                  JUNCTION     1641.97          0.261        0.015
  147                  JUNCTION     1667.40          0.439        0.000
  148                  JUNCTION     1686.68          0.781        0.000
  149                  JUNCTION     1681.59          1.234        0.000
  150                  JUNCTION     1053.31          1.731        0.499
  151                  JUNCTION      640.37          1.363        1.137
  152                  JUNCTION     1314.63          1.613        0.521
  153                  JUNCTION     1313.28          1.375        0.291
  154                  JUNCTION     1312.64          1.121        0.171
  155                  JUNCTION     1311.09          0.787        0.324
  156                  JUNCTION     1309.42          0.416        0.000
  157                  JUNCTION     1307.29          0.157        0.000
  158                  JUNCTION     1302.57          0.000        0.000
  47a                  JUNCTION       38.14          0.430        0.000
  47b                  JUNCTION      542.11          0.399        0.000
  56b                  JUNCTION       33.58          0.378        0.000
  159                  JUNCTION     1283.15          0.000        0.000
  
  
  *********************
  Node Flooding Summary
  *********************
  
  Flooding refers to all water that overflows a node, whether it ponds or not.
  --------------------------------------------------------------------------
                                                             Total   Maximum
                                 Maximum   Time of Max       Flood    Ponded
                        Hours       Rate    Occurrence      Volume     Depth
  Node                 Flooded       CMS   days hr:min    10^6 ltr    Meters
  --------------------------------------------------------------------------
  4                      16.13     0.537     40  15:40      24.499     0.000
  22                     97.84    11.396     40  23:01    1973.937     0.000
  23                     52.44     0.088     40  12:00      12.331     0.000
  24                     52.29     0.020     41  00:00       2.861     0.000
  25                     52.49     1.875     40  19:48     234.749     0.000
  32                     37.27     1.693     40  12:18     175.304     0.000
  33                      0.12     0.016     72  11:15       0.001     0.000
  34                      0.11     0.011     40  07:06       0.000     0.000
  35                     35.44    12.405     40  23:26     817.307     0.000
  48                    490.74    28.137    295  09:05    2779.850     0.585
  49                    721.50    24.769    105  07:37    1678.429     0.712
  50                     69.25    11.473     41  00:00    1547.966     0.000
  52                     17.61     2.861     40  12:05     164.025     0.000
  119                   205.52     2.538     40  14:31     762.308     0.000
  120                   204.50     2.397     40  12:00     403.645     0.000
  126                    34.05     0.212     40  22:43      23.197     0.000
  128                    32.76     2.753     40  23:33     163.876     0.000
  143                  1376.89     0.244     40  22:35     198.804     0.000
  145                  1574.27     1.480     40  21:12    6226.279     0.000
  147                   957.60     0.777     40  18:16    2301.922     0.000
  148                   730.14    10.550     41  00:00    5971.599     0.000
  149                    36.45     2.026     40  23:58     140.550     0.000
  156                    44.95     0.151     40  23:57      10.784     0.000
  157                   609.62     0.264     40  12:00     129.598     0.000
  158                  1302.50     0.099     14  06:24     350.352     0.000
  47a                     9.94    43.641    306  13:31     765.848     0.000
  47b                   247.54    33.885    145  14:44    8350.487     0.000
  56b                    16.00     6.421     41  00:00     309.501     0.000
  159                  1283.11     8.351     41  00:00    6547.811     0.000
  
  
  ***********************
  Outfall Loading Summary
  ***********************
  
  -----------------------------------------------------------
                         Flow       Avg       Max       Total
                         Freq      Flow      Flow      Volume
  Outfall Node           Pcnt       CMS       CMS    10^6 ltr
  -----------------------------------------------------------
  0                     99.99     5.812    51.162  183262.678
  -----------------------------------------------------------
  System                99.99     5.812    51.162  183262.678
  
  
  ********************
  Link Flow Summary
  ********************
  
  -----------------------------------------------------------------------------
                                 Maximum  Time of Max   Maximum    Max/    Max/
                                  |Flow|   Occurrence   |Veloc|    Full    Full
  Link                 Type          CMS  days hr:min     m/sec    Flow   Depth
  -----------------------------------------------------------------------------
  1                    CONDUIT    51.162    40  18:26      4.59    0.40    0.75
  2                    CONDUIT    57.384    40  18:26      5.09    1.21    0.76
  3                    CONDUIT    51.023    40  12:42      3.50    1.08    0.98
  4                    CONDUIT    49.932    41  01:41      3.35    1.05    1.00
  5                    CONDUIT    50.395    40  15:35      3.38    1.06    1.00
  6                    CONDUIT    50.414    40  20:27      3.38    1.06    1.00
  7                    CONDUIT    50.407    40  23:13      3.38    1.06    1.00
  8                    CONDUIT    50.369    40  11:51      3.38    1.06    1.00
  9                    CONDUIT    50.263    40  20:19      3.37    1.06    1.00
  10                   CONDUIT    50.264    40  23:33      3.37    1.06    1.00
  11                   CONDUIT    50.204    40  16:27      3.37    1.06    1.00
  12                   CONDUIT    50.033    40  13:04      3.36    1.05    1.00
  13                   CONDUIT    49.971    40  16:52      3.35    1.05    1.00
  14                   CONDUIT    49.543    40  18:36      3.32    1.04    1.00
  15                   CONDUIT    49.526    40  17:51      3.32    1.04    1.00
  16                   CONDUIT    49.510    40  17:09      3.32    1.04    1.00
  17                   CONDUIT    49.456    40  19:22      3.32    1.04    1.00
  18                   CONDUIT    44.794    41  06:59      3.00    0.94    1.00
  19                   CONDUIT    44.779    41  06:59      3.03    0.94    1.00
  20                   CONDUIT    44.575    41  06:59      3.05    0.94    1.00
  21                   CONDUIT    43.852    41  06:59      3.03    0.92    1.00
  22                   CONDUIT    43.823    41  07:00      3.05    0.92    1.00
  23                   CONDUIT    47.440    40  06:40      3.18    1.00    1.00
  24                   CONDUIT    47.440    40  06:42      3.18    1.00    1.00
  25                   CONDUIT    47.440    40  06:42      3.18    1.00    1.00
  26                   CONDUIT    48.923    40  16:39      3.28    1.03    1.00
  27                   CONDUIT    47.724    40  16:13      3.20    1.01    1.00
  28                   CONDUIT    47.707    40  19:40      3.20    1.01    1.00
  29                   CONDUIT    47.506    73  00:29      3.19    1.00    1.00
  30                   CONDUIT    47.400    72  22:07      3.18    1.00    1.00
  31                   CONDUIT    47.296    73  00:55      3.17    1.00    1.00
  32                   CONDUIT    47.262    41  04:48      3.17    1.00    1.00
  33                   CONDUIT    47.440    72  11:40      3.18    1.00    1.00
  34                   CONDUIT    47.440    40  07:25      3.18    1.00    1.00
  35                   CONDUIT    47.441    73  01:06      3.18    1.00    1.00
  36                   CONDUIT    33.792    40  20:46      2.45    0.71    0.96
  37                   CONDUIT    33.793    40  23:07      2.57    0.71    0.88
  38                   CONDUIT    33.678    40  15:14      2.71    0.71    0.83
  39                   CONDUIT    33.562    40  19:48      2.02    0.45    0.85
  40                   CHANNEL    33.550    40  21:07      2.51    0.57    0.83
  41                   CHANNEL    30.646    40  17:03      4.29    0.07    0.33
  42                   CONDUIT    30.279    40  12:44      3.38    0.76    0.60
  43                   CHANNEL    29.924    40  13:03      2.41    0.12    0.54
  44                   CHANNEL    29.836    40  15:18      2.34    0.05    0.40
  45                   CONDUIT    29.837    40  21:12      5.43    0.32    0.48
  46                   CHANNEL    32.287   100  13:24      2.67    0.69    0.86
  47                   CHANNEL    49.338    63  03:46      7.80    0.20    0.75
  47a                  CONDUIT    41.175   295  09:46      5.39    0.46    1.00
  49                   CHANNEL    27.112    40  06:12      3.13    0.78    1.00
  50                   CHANNEL    28.461    40  06:10      3.63    3.14    1.00
  51                   CHANNEL    37.630    40  09:25      2.00    0.15    0.68
  52                   CONDUIT    37.630    40  09:25      5.55    1.31    0.80
  53                   CHANNEL    40.305    40  12:05      3.23    0.54    0.95
  54                   CHANNEL    38.036    40  12:05      3.14    0.54    1.00
  55                   CONDUIT    37.944    40  11:56      1.97    0.34    0.98
  56a                  CHANNEL    36.584    40  10:14      4.16    0.04    0.25
  57                   CHANNEL    42.897    41  00:00      2.11    0.48    1.00
  58                   CHANNEL    42.851    41  00:00      2.72    1.45    0.26
  59                   CHANNEL    42.542    41  00:01      2.58    1.26    0.25
  60                   CHANNEL    42.548    41  00:01      2.58    2.04    0.31
  61                   CHANNEL    42.999    40  12:00      2.10    7.89    0.67
  62                   CHANNEL    45.588    40  12:00      3.73    0.04    0.31
  63                   CHANNEL    78.284    41  00:00      5.12    5.30    0.44
  64                   CHANNEL    44.748    40  12:00      2.71    0.17    0.79
  65                   CONDUIT    40.760    41  00:01      5.19    1.07    1.00
  66                   CHANNEL    40.605    41  00:00      2.37    0.16    0.78
  67                   CHANNEL    38.773    41  00:02      1.93    7.69    0.73
  usgs_dis             CHANNEL    38.772    40  23:59      1.58    0.12    0.54
  70                   CHANNEL    37.410    41  00:00      3.76    0.37    0.78
  71                   CHANNEL    37.232    41  00:00      2.49    0.15    0.89
  72                   CHANNEL    31.140    41  00:02      1.79    6.67    0.79
  73                   CHANNEL    31.137    41  00:01      1.91    8.09    0.74
  74                   CHANNEL    31.051    41  00:01      1.34   10.12    0.92
  75                   CHANNEL    30.722    41  00:01      1.41    0.22    0.90
  76                   CHANNEL    30.642    41  00:00      1.93    0.10    0.46
  77                   CHANNEL    30.643    41  00:00      1.52    0.04    0.42
  78                   CHANNEL    30.615    41  00:00      4.00    5.34    0.39
  79                   CHANNEL    30.285    41  00:00      2.26    0.01    0.18
  80                   CONDUIT    17.210    41  00:00      4.93    0.56    0.56
  81                   CONDUIT    17.164    40  23:59      4.57    0.81    0.58
  82                   CONDUIT    17.067    40  23:59      4.11    0.80    0.63
  83                   CONDUIT    17.068    40  23:59      4.12    0.80    0.63
  84                   CONDUIT    16.970    40  23:59      4.10    0.80    0.63
  85                   CONDUIT     8.009    41  00:01      2.22    0.38    0.57
  86                   CONDUIT     7.697    41  00:01      2.60    0.36    0.47
  87                   CONDUIT     7.703    40  23:38      2.90    0.36    0.42
  88                   CONDUIT     7.656    40  23:38      3.09    0.36    0.40
  89                   CONDUIT     7.347    40  23:38      3.12    0.34    0.38
  90                   CONDUIT     7.317    40  21:56      3.21    0.34    0.37
  91                   CONDUIT     8.455    40  21:46      3.60    0.40    0.38
  92                   CONDUIT     8.451    40  21:46      3.45    0.40    0.39
  93                   CONDUIT     8.437    40  21:46      3.45    0.40    0.39
  94                   CONDUIT     8.432    40  21:55      3.44    0.40    0.39
  95                   CONDUIT     8.249    40  21:55      3.38    0.39    0.39
  96                   CONDUIT     8.220    40  21:55      3.39    0.39    0.39
  97                   CONDUIT     8.306    40  21:55      3.39    0.39    0.39
  98                   CONDUIT     8.573    40  21:55      3.06    1.06    0.44
  99                   CONDUIT     8.019    40  21:54      2.44    1.00    0.52
  100                  CONDUIT     8.012    40  21:54      2.26    1.00    0.55
  101                  CONDUIT     8.010    40  21:39      2.14    0.99    0.57
  102                  CONDUIT     7.944    40  21:39      2.08    0.70    0.58
  103                  CONDUIT     7.886    40  21:54      2.08    0.69    0.58
  104                  CONDUIT     7.877    40  21:54      2.09    0.69    0.58
  105                  CONDUIT     7.877    40  23:42      2.10    0.69    0.57
  106                  CONDUIT     7.837    40  23:42      2.10    0.69    0.57
  107                  CONDUIT     7.810    40  23:42      2.10    0.69    0.57
  108                  CONDUIT     7.780    40  23:42      2.10    0.68    0.57
  109                  CONDUIT     7.343    40  23:42      2.00    0.64    0.56
  110                  CONDUIT     7.343    40  23:42      2.02    0.64    0.56
  111                  CONDUIT     7.343    40  23:41      2.03    0.64    0.55
  112                  CONDUIT     7.343    40  23:41      2.05    0.64    0.55
  113                  CONDUIT     7.240    40  23:41      2.64    0.72    0.91
  114                  CONDUIT     7.240    40  23:41      2.97    0.72    0.81
  115                  CONDUIT     7.234    40  19:11      3.03    0.72    0.80
  116                  CONDUIT     7.230    40  17:01      3.04    0.72    0.79
  117                  CONDUIT     4.454    41  04:16      6.40    1.52    0.90
  118                  CONDUIT     4.456    72  11:28      5.67    1.52    1.00
  119                  CONDUIT     1.419   326  00:19      0.58    0.19    1.00
  120                  CONDUIT     1.384    75  11:21      1.24    0.18    1.00
  121                  CONDUIT     3.752    40  12:00      1.42    0.50    0.88
  122                  CONDUIT     3.720    40  12:00      1.80    0.49    0.69
  123                  CONDUIT     3.591    40  12:00      1.98    0.48    0.60
  124                  CONDUIT     5.496    40  20:16      1.83    0.46    1.00
  125                  CONDUIT     5.418    40  07:24      1.89    1.02    1.00
  126                  CONDUIT     5.417    73  00:16      1.81    1.02    1.00
  127                  CONDUIT     5.604    40  21:35      1.87    1.05    1.00
  128                  CONDUIT     5.590    72  14:31      1.86    1.05    1.00
  129                  CONDUIT     0.054    41  04:27      0.02    0.01    0.97
[...]
  53                      1.00   0.00  0.00  0.00  0.01  0.99  0.00  0.00  0.29  0.00
  54                      1.00   0.00  0.00  0.00  1.00  0.00  0.00  0.00  0.00  0.00
  55                      1.00   0.00  0.00  0.00  1.00  0.00  0.00  0.00  0.85  0.00
  56a                     1.00   0.00  0.00  0.00  0.40  0.60  0.00  0.00  0.26  0.00
  57                      1.00   0.00  0.00  0.00  1.00  0.00  0.00  0.00  0.97  0.00
  58                      1.00   0.00  0.00  0.00  1.00  0.00  0.00  0.00  0.00  0.00
  59                      1.00   0.00  0.00  0.00  1.00  0.00  0.00  0.00  0.00  0.00
  60                      1.00   0.00  0.00  0.00  1.00  0.00  0.00  0.00  0.00  0.00
  61                      1.00   0.00  0.00  0.00  1.00  0.00  0.00  0.00  0.00  0.00
  62                      1.00   0.00  0.00  0.00  0.01  0.12  0.00  0.87  0.04  0.00
  63                      1.00   0.00  0.00  0.00  0.79  0.21  0.00  0.00  0.03  0.00
  64                      1.00   0.00  0.00  0.00  0.94  0.06  0.00  0.00  0.78  0.00
  65                      1.00   0.00  0.00  0.00  0.18  0.82  0.00  0.00  0.00  0.00
  66                      1.00   0.00  0.00  0.00  1.00  0.00  0.00  0.00  0.00  0.00
  67                      1.00   0.00  0.00  0.00  1.00  0.00  0.00  0.00  0.00  0.00
  usgs_dis                1.00   0.00  0.00  0.00  0.21  0.00  0.00  0.79  0.02  0.00
  70                      1.00   0.00  0.00  0.00  0.05  0.95  0.00  0.00  0.14  0.00
  71                      1.00   0.00  0.00  0.00  1.00  0.00  0.00  0.00  0.69  0.00
  72                      1.00   0.00  0.00  0.00  1.00  0.00  0.00  0.00  0.00  0.00
  73                      1.00   0.00  0.00  0.00  1.00  0.00  0.00  0.00  0.00  0.00
  74                      1.00   0.00  0.00  0.00  1.00  0.00  0.00  0.00  0.00  0.00
  75                      1.00   0.00  0.00  0.00  1.00  0.00  0.00  0.00  0.83  0.00
  76                      1.00   0.00  0.00  0.00  1.00  0.00  0.00  0.00  0.86  0.00
  77                      1.00   0.00  0.01  0.00  0.99  0.00  0.00  0.00  0.99  0.00
  78                      1.00   0.00  0.00  0.00  0.71  0.29  0.00  0.00  0.00  0.00
  79                      1.00   0.00  0.01  0.00  0.99  0.00  0.00  0.00  0.99  0.00
  80                      1.00   0.01  0.00  0.00  0.60  0.38  0.00  0.00  0.81  0.00
  81                      1.00   0.01  0.00  0.00  0.51  0.47  0.00  0.00  0.27  0.00
  82                      1.00   0.01  0.00  0.00  0.56  0.42  0.00  0.00  0.73  0.00
  83                      1.00   0.01  0.00  0.00  0.55  0.43  0.00  0.00  0.70  0.00
  84                      1.00   0.01  0.00  0.00  0.55  0.43  0.00  0.00  0.72  0.00
  85                      1.00   0.02  0.00  0.00  0.70  0.29  0.00  0.00  0.73  0.00
  86                      1.00   0.02  0.00  0.00  0.56  0.42  0.00  0.00  0.68  0.00
  87                      1.00   0.02  0.00  0.00  0.56  0.42  0.00  0.00  0.67  0.00
  88                      1.00   0.02  0.00  0.00  0.56  0.42  0.00  0.00  0.70  0.00
  89                      1.00   0.02  0.00  0.00  0.56  0.42  0.00  0.00  0.74  0.00
  90                      1.00   0.02  0.00  0.00  0.55  0.42  0.00  0.00  0.73  0.00
  91                      1.00   0.02  0.00  0.00  0.59  0.39  0.00  0.00  0.80  0.00
  92                      1.00   0.02  0.00  0.00  0.57  0.40  0.00  0.00  0.58  0.00
  93                      1.00   0.02  0.00  0.00  0.57  0.41  0.00  0.00  0.55  0.00
  94                      1.00   0.02  0.00  0.00  0.57  0.41  0.00  0.00  0.56  0.00
  95                      1.00   0.02  0.00  0.00  0.57  0.41  0.00  0.00  0.75  0.00
  96                      1.00   0.02  0.00  0.00  0.57  0.41  0.00  0.00  0.57  0.00
  97                      1.00   0.02  0.00  0.00  0.57  0.41  0.00  0.00  0.56  0.00
  98                      1.00   0.02  0.00  0.00  0.81  0.17  0.00  0.00  0.01  0.00
  99                      1.00   0.02  0.00  0.00  0.98  0.00  0.00  0.00  0.60  0.00
  100                     1.00   0.02  0.00  0.00  0.98  0.00  0.00  0.00  0.58  0.00
  101                     1.00   0.02  0.00  0.00  0.98  0.00  0.00  0.00  0.58  0.00
  102                     1.00   0.02  0.00  0.00  0.98  0.00  0.00  0.00  0.67  0.00
  103                     1.00   0.02  0.00  0.00  0.98  0.00  0.00  0.00  0.67  0.00
  104                     1.00   0.02  0.00  0.00  0.98  0.00  0.00  0.00  0.65  0.00
  105                     1.00   0.02  0.00  0.00  0.98  0.00  0.00  0.00  0.63  0.00
  106                     1.00   0.02  0.00  0.00  0.98  0.00  0.00  0.00  0.67  0.00
  107                     1.00   0.02  0.00  0.00  0.98  0.00  0.00  0.00  0.66  0.00
  108                     1.00   0.02  0.00  0.00  0.98  0.00  0.00  0.00  0.66  0.00
  109                     1.00   0.02  0.00  0.00  0.98  0.00  0.00  0.00  0.68  0.00
  110                     1.00   0.02  0.00  0.00  0.98  0.00  0.00  0.00  0.63  0.00
  111                     1.00   0.02  0.00  0.00  0.98  0.00  0.00  0.00  0.64  0.00
  112                     1.00   0.02  0.00  0.00  0.98  0.00  0.00  0.00  0.66  0.00
  113                     1.00   0.02  0.00  0.00  0.98  0.00  0.00  0.00  0.85  0.00
  114                     1.00   0.02  0.00  0.00  0.74  0.23  0.00  0.00  0.63  0.00
  115                     1.00   0.02  0.00  0.00  0.74  0.23  0.00  0.00  0.68  0.00
  116                     1.00   0.02  0.00  0.00  0.74  0.23  0.00  0.00  0.71  0.00
  117                     1.00   0.02  0.00  0.00  0.04  0.94  0.00  0.00  0.07  0.00
  118                     1.00   0.02  0.00  0.00  0.31  0.67  0.00  0.00  0.85  0.00
  119                     1.00   0.02  0.00  0.00  0.98  0.00  0.00  0.00  0.92  0.00
  120                     1.00   0.02  0.00  0.00  0.98  0.00  0.00  0.00  0.94  0.00
  121                     1.00   0.02  0.00  0.00  0.98  0.00  0.00  0.00  0.94  0.00
  122                     1.00   0.02  0.00  0.00  0.98  0.00  0.00  0.00  0.97  0.00
  123                     1.00   0.02  0.00  0.00  0.98  0.00  0.00  0.00  0.97  0.00
  124                     1.00   0.02  0.00  0.00  0.98  0.00  0.00  0.00  0.95  0.00
  125                     1.00   0.02  0.00  0.00  0.98  0.00  0.00  0.00  0.00  0.00
  126                     1.00   0.02  0.00  0.00  0.98  0.00  0.00  0.00  0.90  0.00
  127                     1.00   0.02  0.00  0.00  0.98  0.00  0.00  0.00  0.70  0.00
  128                     1.00   0.02  0.00  0.00  0.98  0.00  0.00  0.00  0.92  0.00
  129                     1.00   0.02  0.17  0.00  0.81  0.00  0.00  0.00  0.88  0.00
  130                     1.00   0.19  0.27  0.00  0.54  0.00  0.00  0.00  0.34  0.00
  131                     1.00   0.46  0.11  0.00  0.43  0.00  0.00  0.00  0.52  0.00
  132                     1.00   0.01  0.00  0.00  0.67  0.31  0.00  0.00  0.21  0.00
  133                     1.00   0.01  0.00  0.00  0.93  0.05  0.00  0.00  0.69  0.00
  134                     1.00   0.01  0.00  0.00  0.76  0.23  0.00  0.00  0.64  0.00
  135                     1.00   0.01  0.00  0.00  0.70  0.29  0.00  0.00  0.66  0.00
  136                     1.00   0.01  0.00  0.00  0.70  0.29  0.00  0.00  0.68  0.00
  137                     1.00   0.01  0.00  0.00  0.99  0.00  0.00  0.00  0.00  0.00
  138                     1.00   0.01  0.00  0.00  0.99  0.00  0.00  0.00  0.00  0.00
  139                     1.00   0.01  0.00  0.00  0.99  0.00  0.00  0.00  0.24  0.00
  140                     1.00   0.01  0.00  0.00  0.99  0.00  0.00  0.00  0.25  0.00
  141                     1.00   0.01  0.00  0.00  0.98  0.00  0.00  0.00  0.27  0.00
  142                     1.00   0.02  0.00  0.00  0.98  0.00  0.00  0.00  0.28  0.00
  143                     1.00   0.02  0.00  0.00  0.98  0.00  0.00  0.00  0.26  0.00
  144                     1.00   0.02  0.00  0.00  0.98  0.00  0.00  0.00  0.25  0.00
  145                     1.00   0.02  0.00  0.00  0.98  0.00  0.00  0.00  0.27  0.00
  146                     1.00   0.02  0.00  0.00  0.98  0.00  0.00  0.00  0.26  0.00
  147                     1.00   0.02  0.00  0.00  0.98  0.00  0.00  0.00  0.26  0.00
  148                     1.00   0.02  0.00  0.00  0.98  0.00  0.00  0.00  0.27  0.00
  149                     1.00   0.02  0.00  0.00  0.98  0.00  0.00  0.00  0.25  0.00
  150                     1.00   0.02  0.00  0.00  0.98  0.00  0.00  0.00  0.78  0.00
  151                     1.00   0.02  0.00  0.00  0.98  0.00  0.00  0.00  0.06  0.00
  152                     1.00   0.02  0.00  0.00  0.98  0.00  0.00  0.00  0.79  0.00
  153                     1.00   0.02  0.00  0.00  0.98  0.00  0.00  0.00  0.64  0.00
  154                     1.00   0.02  0.00  0.00  0.98  0.00  0.00  0.00  0.64  0.00
  155                     1.00   0.02  0.00  0.00  0.98  0.00  0.00  0.00  0.85  0.00
  156                     1.00   0.02  0.00  0.00  0.98  0.00  0.00  0.00  0.83  0.00
  157                     1.00   0.02  0.00  0.00  0.98  0.00  0.00  0.00  0.85  0.00
  158                     1.00   0.02  0.00  0.00  0.98  0.00  0.00  0.00  0.82  0.00
  159                     1.00   0.02  0.00  0.00  0.98  0.00  0.00  0.00  0.60  0.00
  160                     1.00   0.00  0.00  0.00  1.00  0.00  0.00  0.00  0.00  0.00
  161                     1.00   0.00  0.02  0.00  0.98  0.00  0.00  0.00  0.67  0.00
  162                     1.00   0.02  0.00  0.00  0.98  0.00  0.00  0.00  0.64  0.00
  163                     1.00   0.02  0.00  0.00  0.98  0.00  0.00  0.00  0.73  0.00
  164                     1.00   0.02  0.00  0.00  0.98  0.00  0.00  0.00  0.78  0.00
  165                     1.00   0.02  0.00  0.00  0.98  0.00  0.00  0.00  0.68  0.00
  166                     1.00   0.02  0.00  0.00  0.98  0.00  0.00  0.00  0.83  0.00
  167                     1.00   0.02  0.00  0.00  0.98  0.00  0.00  0.00  0.86  0.00
  168                     1.00   0.02  0.00  0.00  0.98  0.00  0.00  0.00  0.83  0.00
  169                     1.00   0.02  0.00  0.00  0.98  0.00  0.00  0.00  0.88  0.00
  170                     1.00   0.02  0.00  0.00  0.97  0.00  0.00  0.00  0.85  0.00
  171                     1.00   0.02  0.02  0.00  0.96  0.00  0.00  0.00  0.90  0.00
  172                     1.00   0.00  0.02  0.00  0.98  0.00  0.00  0.00  0.66  0.00
  173                     1.00   0.02  0.00  0.00  0.98  0.00  0.00  0.00  0.92  0.00
  174                     1.00   0.02  0.54  0.00  0.43  0.00  0.00  0.00  0.98  0.00
  47b                     1.00   0.00  0.00  0.00  0.09  0.91  0.00  0.00  0.00  0.00
  48                      1.00   0.00  0.00  0.00  1.00  0.00  0.00  0.00  0.00  0.00
  56                      1.00   0.00  0.00  0.00  1.00  0.00  0.00  0.00  0.00  0.00
  80-a                    1.00   0.01  0.00  0.00  0.55  0.44  0.00  0.00  0.79  0.00
  81-a                    1.00   0.01  0.00  0.00  0.42  0.56  0.00  0.00  0.32  0.00
  82-a                    1.00   0.01  0.00  0.00  0.55  0.43  0.00  0.00  0.70  0.00
  83-a                    1.00   0.01  0.00  0.00  0.54  0.45  0.00  0.00  0.69  0.00
  84-a                    1.00   0.01  0.00  0.00  0.54  0.44  0.00  0.00  0.69  0.00
  85-a                    1.00   0.02  0.00  0.00  0.73  0.25  0.00  0.00  0.69  0.00
  86-a                    1.00   0.02  0.00  0.00  0.55  0.44  0.00  0.00  0.65  0.00
  87-a                    1.00   0.02  0.00  0.00  0.54  0.44  0.00  0.00  0.66  0.00
  88-a                    1.00   0.02  0.00  0.00  0.54  0.44  0.00  0.00  0.68  0.00
  89-a                    1.00   0.02  0.00  0.00  0.54  0.44  0.00  0.00  0.69  0.00
  90-a                    1.00   0.02  0.00  0.00  0.54  0.44  0.00  0.00  0.70  0.00
  69                      1.00   0.00  0.00  0.00  1.00  0.00  0.00  0.00  0.74  0.00
  
  
  *************************
  Conduit Surcharge Summary
  *************************
  
  ----------------------------------------------------------------------------
                                                           Hours        Hours 
                         --------- Hours Full --------   Above Full   Capacity
  Conduit                Both Ends  Upstream  Dnstream   Normal Flow   Limited
  ----------------------------------------------------------------------------
  2                           0.01      0.01      0.01     93.45         0.01
  3                           0.01      0.01      0.01    108.39         0.01
  4                           0.01     58.76      0.01    105.84         0.01
  5                          58.49    101.17     58.49    105.84        58.49
  6                         101.18    103.26    101.18    105.84       101.08
  7                         103.26    104.43    103.26    105.83       103.13
  8                         104.41    105.06    104.41    105.78       104.08
  9                         105.06    105.29    105.07    105.56       104.26
  10                        105.28    105.39    105.29    105.48       104.44
  11                        105.38    105.41    105.39    105.42       104.32
  12                        105.32    105.32    105.41    105.03       103.93
  13                        105.25    105.25    105.33    104.94       103.92
  14                        105.10    105.10    105.25    103.87       102.70
  15                        104.97    104.97    105.10    103.81       102.48
  16                        104.86    104.86    104.97    103.72       102.40
  17                        104.76    104.76    104.86    103.66       102.08
  18                        103.14    103.14    104.76      0.01         0.01
  19                        101.88    101.88    103.14      0.01         0.01
  20                        100.72    100.72    101.88      0.01         0.01
  21                         99.32     99.32    100.72      0.01         0.01
  22                         97.84     97.84     99.32      0.01         0.01
  23                         52.42     52.42     97.83      0.01         0.01
  24                         52.34     52.48     52.42      0.01         0.01
  25                         52.24     52.30     52.37      0.01         0.01
  26                         51.41     51.41     52.30     51.54        50.55
  27                         43.82     43.85     51.38     37.48        27.29
  28                         40.60     40.60     43.87     37.28        22.26
  29                         37.74     37.74     40.61      3.23        17.70
  30                         37.47     37.47     37.74      0.01        13.79
  31                         37.26     37.28     37.45      0.01         8.28
  32                         37.08     37.27     37.18      0.01         1.35
  33                         18.44     18.44     37.27      0.01         0.01
  34                         14.16     29.04     18.44      0.01         0.01
  35                         29.04     35.43     29.04      0.01         0.01
  36                          0.01      0.01     35.43      0.01         0.01
  47a                         0.20     23.86    165.00      0.01         0.04
  49                        743.71    747.29    752.60      0.01        49.34
  50                        714.71    722.51    725.38    916.72       702.52
  51                          0.01      0.01     68.68      0.01         0.01
  52                          0.01     56.16      0.01     54.48         0.01
  53                          0.01      0.01     17.61      0.01         0.01
  54                         51.05     51.05    113.15      0.01         0.01
  55                          0.01      0.01     18.62      0.01         0.01
  57                         16.75     16.75     37.45      0.01         0.01
  58                          0.01      0.01      0.01     34.25         0.01
  59                          0.01      0.01      0.01     17.93         0.01
  60                          0.01      0.01      0.01    144.20         0.01
  61                          0.01      0.01      0.01   1180.67         0.01
  63                          0.01      0.01      0.01    424.06         0.01
  65                         16.53     53.99     16.53     13.66        16.53
  67                          0.01      0.01      0.01   1208.66         0.01
  72                          0.01      0.01      0.01   1135.26         0.01
  73                          0.01      0.01      0.01   1346.18         0.01
  74                          0.01      0.01      0.01   1568.42         0.01
  75                          0.01      0.01     11.95      0.01         0.01
  78                          0.01      0.01      0.01    954.23         0.01
  98                          0.01      0.01      0.01      7.72         0.01
  113                         0.01      0.01     12.13      0.01         0.01
  117                         0.01    348.33      0.01    508.33         0.01
  118                       348.28    438.95    348.28    508.33       348.28
  119                       262.30    262.30    438.95      0.01         0.01
  120                       214.48    214.48    262.30      0.01         0.01
  121                         0.01      0.01    214.49      0.01         0.01
  124                       133.26    133.26    438.95      0.01         0.01
  125                        56.38     56.38    133.65     34.60        32.80
  126                        52.01     52.01     56.39     34.60        33.29
  127                        49.96     49.96     52.01     34.61        34.62
  128                        37.09     37.09     49.96     34.53        34.47
  129                         0.01      0.01     37.09      0.01         0.01
  138                         0.01      0.01      0.01   1935.44         0.01
  139                         0.01      0.01      0.01   1932.11         0.01
  140                         0.01      0.01      0.01   1930.96         0.01
  141                         0.01      0.01      0.01   1930.98         0.01
  142                         0.01      0.01      0.01   1930.32         0.01
  143                         0.01      0.01      0.01   1929.70         0.01
  144                         0.01   1600.28      0.01   1926.88         0.01
  145                      1600.28   1622.03   1600.28   1917.36      1600.28
  146                      1622.03   1641.93   1622.03   1916.82      1622.03
  147                      1641.92   1667.40   1641.92   1915.36      1641.92
  148                      1667.40   1686.68   1667.40   1915.40      1667.40
  149                      1681.56   1681.56   1686.68   1590.19      1589.85
  150                      1053.34   1053.34   1681.56     19.38        19.36
  151                       640.91    640.91   1053.36      0.01         0.01
  152                      1314.64   1314.64   1321.26    227.97       225.45
  153                      1313.30   1313.30   1314.64    227.29       239.39
  154                      1312.63   1312.64   1313.30    228.64       229.68
  155                      1311.09   1311.09   1312.64      1.21         8.64
  156                      1309.42   1309.42   1311.09      0.01         1.19
  157                      1307.28   1307.28   1309.42      0.01         0.13
  158                         0.01      0.01   1307.28      0.01         0.01
  160                         0.01      0.01     35.43      0.01         0.01
  47b                       160.34    574.90    292.24     21.27       148.09
  48                        315.29    698.45    338.44      2.36       204.50
  56                          0.01     33.58      0.01   1596.18         0.01
  69                         17.04     19.58     17.04      0.01        17.04
  

  Analysis begun on:  Mon Feb 28 15:50:43 2022
  Analysis ended on:  Mon Feb 28 15:56:08 2022
  Total elapsed time: 00:05:25