
  EPA STORM WATER MANAGEMENT MODEL - VERSION 5.1 (Build 5.1.013)
  --------------------------------------------------------------

  WARNING 09: time series interval greater than recording interval for Rain Gage 1
  WARNING 01: wet weather time step reduced to recording interval for Rain Gage 1
  WARNING 09: time series interval greater than recording interval for Rain Gage 2
  WARNING 04: minimum elevation drop used for Conduit 58
  WARNING 04: minimum elevation drop used for Conduit 59
  WARNING 04: minimum elevation drop used for Conduit 60
  WARNING 04: minimum elevation drop used for Conduit 61
  WARNING 04: minimum elevation drop used for Conduit 63
  WARNING 04: minimum elevation drop used for Conduit 67
  WARNING 04: minimum elevation drop used for Conduit 72
  WARNING 04: minimum elevation drop used for Conduit 73
  WARNING 04: minimum elevation drop used for Conduit 74
  WARNING 04: minimum elevation drop used for Conduit 78
  WARNING 04: minimum elevation drop used for Conduit 56
  WARNING 02: maximum depth increased for Node 22
  WARNING 02: maximum depth increased for Node 23
  WARNING 02: maximum depth increased for Node 24
  WARNING 02: maximum depth increased for Node 25
  WARNING 02: maximum depth increased for Node 32
  WARNING 02: maximum depth increased for Node 33
  WARNING 02: maximum depth increased for Node 34
  WARNING 02: maximum depth increased for Node 35
  WARNING 02: maximum depth increased for Node 36
  WARNING 02: maximum depth increased for Node 37
  WARNING 02: maximum depth increased for Node 40
  WARNING 02: maximum depth increased for Node 41
  WARNING 02: maximum depth increased for Node 42
  WARNING 02: maximum depth increased for Node 43_depth
  WARNING 02: maximum depth increased for Node 44
  WARNING 02: maximum depth increased for Node 46
  WARNING 02: maximum depth increased for Node 47
  WARNING 02: maximum depth increased for Node 50
  WARNING 02: maximum depth increased for Node 51
  WARNING 02: maximum depth increased for Node 52
  WARNING 02: maximum depth increased for Node 53
  WARNING 02: maximum depth increased for Node 55
  WARNING 02: maximum depth increased for Node 56a
  WARNING 02: maximum depth increased for Node 57
  WARNING 02: maximum depth increased for Node 58
  WARNING 02: maximum depth increased for Node 59
  WARNING 02: maximum depth increased for Node 60
  WARNING 02: maximum depth increased for Node 61
  WARNING 02: maximum depth increased for Node 62
  WARNING 02: maximum depth increased for Node 63
  WARNING 02: maximum depth increased for Node 64
  WARNING 02: maximum depth increased for Node 65
  WARNING 02: maximum depth increased for Node 66
  WARNING 02: maximum depth increased for Node 67
  WARNING 02: maximum depth increased for Node 68
  WARNING 02: maximum depth increased for Node 69
  WARNING 02: maximum depth increased for Node 70
  WARNING 02: maximum depth increased for Node 71
  WARNING 02: maximum depth increased for Node 72
  WARNING 02: maximum depth increased for Node 73
  WARNING 02: maximum depth increased for Node 74
  WARNING 02: maximum depth increased for Node 75
  WARNING 02: maximum depth increased for Node 76
  WARNING 02: maximum depth increased for Node 77
  WARNING 02: maximum depth increased for Node 78
  WARNING 02: maximum depth increased for Node 79
  WARNING 02: maximum depth increased for Node 92
  WARNING 02: maximum depth increased for Node 134
  WARNING 02: maximum depth increased for Node 135
  WARNING 02: maximum depth increased for Node 136
  WARNING 02: maximum depth increased for Node 138
  WARNING 02: maximum depth increased for Node 139
  WARNING 02: maximum depth increased for Node 140
  WARNING 02: maximum depth increased for Node 141
  WARNING 02: maximum depth increased for Node 142
  WARNING 02: maximum depth increased for Node 143
  WARNING 02: maximum depth increased for Node 158
  WARNING 02: maximum depth increased for Node 163
  WARNING 02: maximum depth increased for Node 164
  WARNING 02: maximum depth increased for Node 165
  WARNING 02: maximum depth increased for Node 166
  WARNING 02: maximum depth increased for Node 167
  WARNING 02: maximum depth increased for Node 168
  WARNING 02: maximum depth increased for Node 170
  WARNING 02: maximum depth increased for Node 171
  WARNING 02: maximum depth increased for Node 173
  WARNING 02: maximum depth increased for Node 174
  
  *********************************************************
  NOTE: The summary statistics displayed in this report are
  based on results found at every computational time step,  
  not just on results from each reporting time step.
  *********************************************************
  
  ****************
  Analysis Options
  ****************
  Flow Units ............... CMS
  Process Models:
    Rainfall/Runoff ........ YES
    RDII ................... NO
    Snowmelt ............... NO
    Groundwater ............ NO
    Flow Routing ........... YES
    Ponding Allowed ........ NO
    Water Quality .......... NO
  Infiltration Method ...... CURVE_NUMBER
  Flow Routing Method ...... DYNWAVE
  Surcharge Method ......... EXTRAN
  Starting Date ............ 06/24/2020 00:00:00
  Ending Date .............. 06/25/2020 23:45:00
  Antecedent Dry Days ...... 0.0
  Report Time Step ......... 00:15:00
  Wet Time Step ............ 00:05:00
  Dry Time Step ............ 00:15:00
  Routing Time Step ........ 30.00 sec
  Variable Time Step ....... YES
  Maximum Trials ........... 8
  Number of Threads ........ 1
  Head Tolerance ........... 0.001500 m
  
  
  **************************        Volume         Depth
  Runoff Quantity Continuity     hectare-m            mm
  **************************     ---------       -------
  Total Precipitation ......        86.227        80.235
  Evaporation Loss .........         0.000         0.000
  Infiltration Loss ........        23.558        21.922
  Surface Runoff ...........        59.301        55.181
  Final Storage ............         4.799         4.465
  Continuity Error (%) .....        -1.660
  
  
  **************************        Volume        Volume
  Flow Routing Continuity        hectare-m      10^6 ltr
  **************************     ---------     ---------
  Dry Weather Inflow .......        52.424       524.241
  Wet Weather Inflow .......        59.292       592.928
  Groundwater Inflow .......         0.000         0.000
  RDII Inflow ..............         0.000         0.000
  External Inflow ..........         0.000         0.000
  External Outflow .........        76.761       767.614
  Flooding Loss ............        34.276       342.759
  Evaporation Loss .........         0.000         0.000
  Exfiltration Loss ........         0.000         0.000
  Initial Stored Volume ....         0.059         0.586
  Final Stored Volume ......         0.824         8.241
  Continuity Error (%) .....        -0.077
  
  
  ***************************
  Time-Step Critical Elements
  ***************************
  Link 47b (99.96%)
  
  
  ********************************
  Highest Flow Instability Indexes
  ********************************
  Link 53 (49)
  Link 54 (40)
  Link 52 (34)
  Link 51 (7)
  Link 63 (1)
  
  
  *************************
  Routing Time Step Summary
  *************************
  Minimum Time Step           :     0.01 sec
  Average Time Step           :     1.11 sec
  Maximum Time Step           :     4.07 sec
  Percent in Steady State     :     0.00
  Average Iterations per Step :     2.07
  Percent Not Converging      :     0.42
  
  
  ***************************
  Subcatchment Runoff Summary
  ***************************
  
  ------------------------------------------------------------------------------------------------------------------------------
                            Total      Total      Total      Total     Imperv       Perv      Total       Total     Peak  Runoff
                           Precip      Runon       Evap      Infil     Runoff     Runoff     Runoff      Runoff   Runoff   Coeff
  Subcatchment                 mm         mm         mm         mm         mm         mm         mm    10^6 ltr      CMS
  ------------------------------------------------------------------------------------------------------------------------------
  ws-1                      58.42       0.00       0.00      22.76      12.40      20.61      33.01        0.15     0.07   0.565
  ws-2                      58.42       0.00       0.00      25.62      11.57      21.02      32.59        0.08     0.04   0.558
  ws-3                      58.42       0.00       0.00      19.25      27.45       9.23      36.68        3.55     2.07   0.628
  ws-7                      58.42       0.00       0.00      19.22      20.18      17.36      37.54        0.09     0.06   0.643
  ws-8                      58.42       0.00       0.00      15.74      28.01      14.12      42.13        0.38     0.31   0.721
  ws-9                      58.42       0.00       0.00      17.82      27.20      14.14      41.34        0.12     0.11   0.708
  ws-10                     58.42       0.00       0.00       6.83      47.06       6.35      53.40        0.15     0.17   0.914
  ws-11                     58.42       0.00       0.00       8.26      45.65       6.39      52.04        0.78     0.71   0.891
  ws-12                     58.42       0.00       0.00       9.00      42.50       8.30      50.80        0.18     0.19   0.870
  ws-13                     58.42       0.00       0.00      12.25      41.36       4.88      46.24        1.64     1.28   0.792
  ws-14                     58.42       0.00       0.00       9.33      41.26       8.81      50.07        0.11     0.11   0.857
  ws-15                     58.42       0.00       0.00      12.89      37.07      10.07      47.14        0.10     0.10   0.807
  ws-16                     58.42       0.00       0.00       9.58      43.36       7.69      51.05        0.15     0.17   0.874
  ws-17                     58.42       0.00       0.00      19.52      30.97       3.17      34.14       23.93     5.27   0.584
  ws-18                     58.42       0.00       0.00       8.14      44.02       7.42      51.44        0.09     0.10   0.880
  ws-19                     58.42       0.00       0.00      22.60      30.70       3.93      34.63        1.37     1.12   0.593
  ws-20                     58.42       0.00       0.00      22.13      30.69       3.45      34.13        4.72     2.85   0.584
  ws-21                     58.42       0.00       0.00      29.65      19.96       7.08      27.04        0.16     0.15   0.463
  ws-22                     58.42       0.00       0.00      18.28      34.07       3.44      37.51        7.72     3.06   0.642
  ws-23                     58.42       0.00       0.00      27.11      25.12       4.88      30.00        0.22     0.20   0.514
  ws-24                     58.42       0.00       0.00      22.62      29.53       5.61      35.15        0.06     0.06   0.602
  ws-25                     58.42       0.00       0.00      21.83      31.56       3.75      35.30        1.16     0.90   0.604
  ws-26                     58.42       0.00       0.00      21.72      30.01       4.48      34.49        3.59     2.18   0.590
  ws-27                     58.42       0.00       0.00      28.96      20.85       6.99      27.84        0.13     0.12   0.477
  ws-28                     58.42       0.00       0.00      27.00      23.80       6.42      30.23        0.30     0.29   0.517
  ws-29                     58.42       0.00       0.00      36.02      12.97       6.65      19.62        0.26     0.22   0.336
  ws-30                     58.42       0.00       0.00      30.03      21.20       5.39      26.60        0.40     0.38   0.455
  ws-31                     58.42       0.00       0.00      37.37       8.91       8.84      17.75        0.06     0.04   0.304
  ws-32                     58.42       0.00       0.00      35.32      14.61       5.10      19.71        1.96     1.65   0.337
  ws-35                     58.42       0.00       0.00      43.97       2.14       8.07      10.21        0.09     0.03   0.175
  ws-37                     58.42       0.00       0.00      15.42      36.93       6.21      43.14        0.41     0.37   0.738
  ws-38                     58.42       0.00       0.00      13.82      32.13      12.43      44.56        0.44     0.38   0.763
  ws-40                     58.42       0.00       0.00       7.46      45.93       6.88      52.81        0.10     0.11   0.904
  ws-41                     58.42       0.00       0.00       5.42      48.57       4.83      53.40        1.61     1.07   0.914
  ws-42                     58.42       0.00       0.00       8.78      42.41       7.75      50.16        1.47     1.19   0.859
  ws-43                     58.42       0.00       0.00      12.90      34.09      11.72      45.81        0.34     0.31   0.784
  ws-45                     85.34       0.00       0.00      22.74      44.59      17.64      62.24        9.46     7.69   0.729
  ws-46                     85.34       0.00       0.00      11.32      64.22       8.29      72.51       12.51     5.40   0.850
  ws-47                     85.34       0.00       0.00      17.99      52.69      17.03      69.73        0.46     0.52   0.817
  ws-48                     85.34       0.00       0.00       7.73      72.05       9.65      81.71        0.22     0.28   0.957
  ws-49                     85.34       0.00       0.00       3.33      79.55       5.52      85.07        0.94     0.88   0.997
  ws-50                     85.34       0.00       0.00       0.54      88.66       0.90      89.56        0.56     0.71   1.049
  ws-52                     85.34       0.00       0.00      17.42      54.68      15.56      70.24        1.17     1.30   0.823
  ws-53                     85.34       0.00       0.00      11.21      67.29      10.30      77.58        6.05     7.16   0.909
  ws-54                     85.34       0.00       0.00      13.57      55.11      20.71      75.82        0.31     0.40   0.888
  ws-55                     85.34       0.00       0.00      23.30      43.41      17.57      60.98        7.07     5.46   0.714
  ws-57                     85.34       0.00       0.00      41.54       6.71      33.44      40.15        0.15     0.05   0.470
  ws-58                     85.34       0.00       0.00      31.09      28.27      23.98      52.26        1.34     0.95   0.612
  ws-60                     58.42       0.00       0.00      13.77      32.27      12.43      44.70        0.21     0.19   0.765
  ws-61                     58.42       0.00       0.00      13.10      33.79      11.74      45.53        0.36     0.32   0.779
  ws-62                     58.42       0.00       0.00      14.18      31.25      12.82      44.07        0.14     0.13   0.754
  ws-63                     58.42       0.00       0.00      10.88      37.93       9.51      47.44        1.73     1.31   0.812
  ws-64                     58.42       0.00       0.00      18.81      31.51       6.27      37.77        3.63     2.24   0.647
  ws-65                     58.42       0.00       0.00      12.79      34.53      11.36      45.89        0.50     0.45   0.786
  ws-66                     58.42       0.00       0.00      13.48      33.02      12.02      45.04        6.78     6.00   0.771
  ws-69                     85.34       0.00       0.00      27.45      42.26      14.94      57.20        6.41     4.46   0.670
  ws-70                     85.34       0.00       0.00      20.57      49.02      16.16      65.17        0.96     0.92   0.764
  ws-71                     85.34       0.00       0.00      21.62      47.26      16.78      64.04       32.10    30.29   0.750
  ws-73                     85.34       0.00       0.00      17.05      55.21      14.84      70.06        0.49     0.53   0.821
  ws-74                     85.34       0.00       0.00      40.22      10.49      28.90      39.38        1.07     0.40   0.461
  ws-75                     85.34       0.00       0.00      41.57       7.54      32.77      40.31        0.27     0.09   0.472
  ws-77                     85.34       0.00       0.00      41.71       6.40      35.01      41.41        0.10     0.04   0.485
  ws-78                     85.34       0.00       0.00      35.80      30.54      17.21      47.75        1.29     1.04   0.559
  ws-79                     85.34       0.00       0.00      31.12      28.28      24.87      53.15        0.50     0.38   0.623
  ws-80                     85.34       0.00       0.00      26.56      33.69      26.80      60.49        0.04     0.04   0.709
  ws-81                     85.34       0.00       0.00      33.93      33.55      16.29      49.84        0.71     0.59   0.584
  ws-83                     85.34       0.00       0.00      29.20      41.10      14.01      55.11        0.80     0.68   0.646
  ws-84                     85.34       0.00       0.00      14.23      64.13       6.18      70.31       94.01    40.12   0.824
  ws-87                     85.34       0.00       0.00       1.00      87.54       1.42      88.96        0.18     0.22   1.042
  ws-88                     85.34       0.00       0.00      13.99      60.90      11.22      72.12        2.99     2.64   0.845
  ws-89                     85.34       0.00       0.00       0.86      87.97       1.42      89.39        0.18     0.23   1.047
  ws-90                     85.34       0.00       0.00       0.86      87.53       1.53      89.05        0.03     0.04   1.043
  ws-91                     85.34       0.00       0.00       0.57      88.24       1.06      89.29        0.04     0.05   1.046
  ws-92                     85.34       0.00       0.00       3.23      82.82       4.14      86.96        0.10     0.14   1.019
  ws-93                     85.34       0.00       0.00       3.87      80.50       5.44      85.94        0.05     0.07   1.007
  ws-94                     58.42       0.00       0.00       2.73      54.20       2.49      56.68        0.88     0.62   0.970
  ws-95                     58.42       0.00       0.00       2.83      56.02       2.65      58.68        0.15     0.17   1.004
  ws-96                     85.34       0.00       0.00       1.15      85.77       2.12      87.88        0.06     0.08   1.030
  ws-97                     58.42       0.00       0.00       4.30      52.64       3.95      56.58        0.45     0.47   0.969
  ws-98                     58.42       0.00       0.00       5.98      49.22       5.45      54.67        0.42     0.45   0.936
  ws-101                    58.42       0.00       0.00       8.90      42.87       8.02      50.88        0.27     0.27   0.871
  ws-102                    58.42       0.00       0.00       8.35      44.02       7.64      51.66        0.25     0.26   0.884
  ws-103                    58.42       0.00       0.00      10.79      38.75       9.78      48.54        0.03     0.03   0.831
  ws-105                    58.42       0.00       0.00       8.27      44.26       7.51      51.77        0.17     0.18   0.886
  ws-106                    58.42       0.00       0.00       2.17      57.47       2.01      59.48        0.13     0.15   1.018
  ws-107                    85.34       0.00       0.00       4.10      80.96       5.05      86.01        0.22     0.28   1.008
  ws-108                    85.34       0.00       0.00      10.73      67.02       8.76      75.78        2.72     2.42   0.888
  ws-112                    85.34       0.00       0.00      16.34      56.57      14.35      70.92        0.60     0.66   0.831
  ws-114                    85.34       0.00       0.00      22.93      41.55      22.32      63.87        0.03     0.03   0.748
  ws-115                    85.34       0.00       0.00      16.05      56.09      15.58      71.67        0.04     0.05   0.840
  ws-116                    85.34       0.00       0.00      17.89      52.89      13.30      66.19       15.18     9.93   0.776
  ws-118                    85.34       0.00       0.00      23.07      40.18      24.42      64.60        0.03     0.03   0.757
  ws-119                    58.42       0.00       0.00       7.08      46.41       6.40      52.81        0.40     0.38   0.904
  ws-120                    85.34       0.00       0.00      15.80      57.04      15.30      72.34        0.14     0.17   0.848
  ws-121                    85.34       0.00       0.00      12.71      62.76      13.28      76.04        0.20     0.24   0.891
  ws-122                    85.34       0.00       0.00      12.16      65.05      10.66      75.71        0.80     0.89   0.887
  ws-123                    85.34       0.00       0.00      12.36      62.91       9.46      72.37       21.35    13.21   0.848
  ws-124                    58.42       0.00       0.00      16.06      27.34      14.39      41.73        0.31     0.26   0.714
  ws-127                    85.34       0.00       0.00      37.10      13.50      32.54      46.03        0.06     0.03   0.539
  ws-128                    85.34       0.00       0.00       9.79      66.61       6.87      73.48       50.19    15.03   0.861
  ws-130                    85.34       0.00       0.00      27.42      33.61      25.00      58.61        0.06     0.05   0.687
  ws-131                    85.34       0.00       0.00      18.67      46.80      23.33      70.14        0.01     0.02   0.822
  ws-132                    85.34       0.00       0.00      16.73      54.71      12.37      67.08       12.89     7.69   0.786
  ws-136                    85.34       0.00       0.00      27.93      34.50      20.51      55.01        4.32     3.00   0.645
  ws-137                    85.34       0.00       0.00      27.10      32.43      25.41      57.84        0.13     0.12   0.678
  ws-138                    85.34       0.00       0.00      38.21      12.71      31.51      44.22        0.36     0.18   0.518
  ws-139                    85.34       0.00       0.00      36.60      11.55      35.49      47.04        0.13     0.09   0.551
  ws-141                    85.34       0.00       0.00      37.91      10.10      35.17      45.27        0.07     0.04   0.530
  ws-142                    85.34       0.00       0.00      36.07      11.72      36.20      47.92        0.07     0.05   0.561
  ws-143                    85.34       0.00       0.00      36.75      14.96      31.14      46.11        0.32     0.18   0.540
  ws-144                    85.34       0.00       0.00      26.24      47.08      13.46      60.54        1.14     0.99   0.709
  ws-145                    85.34       0.00       0.00      14.57      55.61      17.40      73.01        0.07     0.09   0.855
  ws-146                    85.34       0.00       0.00      30.36      26.54      27.36      53.90        0.14     0.11   0.632
  ws-148                    85.34       0.00       0.00      22.67      44.07      16.44      60.51       49.27    32.22   0.709
  ws-149                    85.34       0.00       0.00      42.64       2.28      37.33      39.61        0.01     0.00   0.464
  ws-150                    85.34       0.00       0.00      30.14      35.52      13.56      49.09       21.86    10.35   0.575
  ws-154                    85.34       0.00       0.00      26.21      36.86      22.02      58.88        0.38     0.33   0.690
  ws-155                    85.34       0.00       0.00      30.17      28.01      26.16      54.16        0.09     0.07   0.635
  ws-156                    85.34       0.00       0.00      23.52      42.52      19.66      62.19        0.32     0.31   0.729
  ws-157                    85.34       0.00       0.00      27.68      35.27      21.54      56.82        0.89     0.72   0.666
  ws-159                    85.34       0.00       0.00      33.57      34.98      11.54      46.52       34.60    18.66   0.545
  ws-161                    85.34       0.00       0.00      31.64      38.58       6.90      45.48       88.77    25.37   0.533
  ws-162                    85.34       0.00       0.00      49.87       7.31      24.34      31.65        0.08     0.03   0.371
  ws-163                    85.34       0.00       0.00      44.86      15.89      21.92      37.81        0.15     0.09   0.443
  ws-165                    85.34       0.00       0.00      19.80      57.35       9.65      67.00        1.47     1.56   0.785
  ws-166                    85.34       0.00       0.00       5.51      80.81       2.77      83.58        0.80     0.95   0.979
  ws-167                    85.34       0.00       0.00      12.61      68.60       6.99      75.59        0.09     0.11   0.886
  ws-168                    85.34       0.00       0.00      15.69      63.24       7.67      70.91        1.23     1.19   0.831
  ws-169                    85.34       0.00       0.00      10.54      72.84       5.92      78.76        0.12     0.15   0.923
  ws-170                    85.34       0.00       0.00      15.92      64.21       7.61      71.82        0.42     0.48   0.842
  ws-171                    85.34       0.00       0.00      17.09      59.57       8.20      67.77        7.77     5.52   0.794
  ws-172                    85.34       0.00       0.00      22.24      45.47      17.77      63.24        0.97     0.88   0.741
  ws-173                    85.34       0.00       0.00      16.07      55.65      11.54      67.20       14.80     7.47   0.787
  ws-174                    85.34       0.00       0.00       9.06      71.01       9.29      80.30        0.07     0.09   0.941
  
  
  ******************
  Node Depth Summary
  ******************
  
  ---------------------------------------------------------------------------------
                                 Average  Maximum  Maximum  Time of Max    Reported
                                   Depth    Depth      HGL   Occurrence   Max Depth
  Node                 Type       Meters   Meters   Meters  days hr:min      Meters
  ---------------------------------------------------------------------------------
  1                    JUNCTION     0.24     1.22    35.92     0  16:42        1.18
  2                    JUNCTION     0.42     1.93    36.94     0  16:30        1.90
  3                    JUNCTION     0.45     2.01    37.34     0  16:30        2.01
  4                    JUNCTION     0.45     2.07    37.72     0  16:31        2.07
  5                    JUNCTION     0.45     2.10    38.06     0  16:29        2.10
  6                    JUNCTION     0.45     2.12    38.40     0  16:29        2.12
  7                    JUNCTION     0.46     2.13    38.72     0  16:28        2.13
  8                    JUNCTION     0.46     2.14    39.04     0  16:26        2.14
  9                    JUNCTION     0.46     2.15    39.37     0  16:26        2.14
  10                   JUNCTION     0.46     2.16    39.69     0  16:25        2.15
  11                   JUNCTION     0.46     2.16    40.01     0  16:27        2.16
  12                   JUNCTION     0.46     2.19    40.36     0  16:25        2.16
  13                   JUNCTION     0.46     2.19    40.66     0  16:24        2.17
  14                   JUNCTION     0.46     2.22    41.01     0  16:25        2.17
  15                   JUNCTION     0.46     2.21    41.32     0  16:24        2.18
  16                   JUNCTION     0.46     2.22    41.64     0  16:24        2.18
  17                   JUNCTION     0.46     2.22    41.97     0  16:24        2.19
  18                   JUNCTION     0.45     2.22    42.28     0  16:24        2.18
  19                   JUNCTION     0.45     2.21    42.59     0  16:24        2.17
  20                   JUNCTION     0.45     2.20    42.89     0  16:24        2.16
  21                   JUNCTION     0.44     2.17    43.21     0  16:24        2.14
  22                   JUNCTION     0.44     2.13    43.49     0  16:24        2.13
  23                   JUNCTION     0.44     2.13    43.83     0  16:24        2.10
  24                   JUNCTION     0.44     2.13    44.15     0  16:24        2.09
  25                   JUNCTION     0.44     2.13    44.27     0  16:24        2.09
  26                   JUNCTION     0.44     2.13    44.46     0  16:24        2.08
  27                   JUNCTION     0.44     2.13    44.78     0  16:24        2.07
  28                   JUNCTION     0.44     2.13    45.10     0  16:24        2.06
  29                   JUNCTION     0.44     2.13    45.55     0  16:25        2.05
  30                   JUNCTION     0.44     2.13    45.90     0  16:25        2.05
  31                   JUNCTION     0.44     2.13    46.22     0  16:25        2.04
  32                   JUNCTION     0.44     2.13    46.54     0  16:24        2.03
  33                   JUNCTION     0.44     2.13    46.86     0  16:22        2.03
  34                   JUNCTION     0.44     2.13    47.17     0  16:21        2.03
  35                   JUNCTION     0.44     2.13    47.52     0  16:21        2.02
  36                   JUNCTION     0.41     2.01    47.71     0  16:22        1.79
  37                   JUNCTION     0.41     1.91    47.98     0  16:21        1.60
  38                   JUNCTION     0.41     1.85    48.24     0  16:22        1.50
  39                   JUNCTION     0.40     2.00    48.46     0  16:22        1.62
  40                   JUNCTION     0.49     1.74    48.68     0  16:23        1.42
  41                   JUNCTION     0.37     1.23    49.75     0  16:21        1.02
  42                   JUNCTION     0.43     1.81    50.52     0  16:21        1.46
  43_depth             JUNCTION     0.39     1.15    50.94     0  16:20        0.99
  44                   JUNCTION     0.32     0.99    51.89     0  16:20        0.85
  45                   JUNCTION     0.58     2.23    53.28     0  16:20        1.82
  46                   JUNCTION     0.97     2.50    53.41     0  16:20        2.18
  47                   JUNCTION     0.57     2.07    53.40     0  16:20        1.73
  48                   JUNCTION     0.51     1.92    54.21     0  16:19        1.87
  49                   JUNCTION     0.47     1.83    54.19     0  16:19        1.83
  50                   JUNCTION     0.87     2.96    55.38     0  16:24        2.95
  51                   JUNCTION     0.30     0.98    55.18     0  16:25        0.98
  52                   JUNCTION     0.45     2.44    56.74     0  16:23        2.44
  53                   JUNCTION     0.61     2.24    56.82     0  16:23        2.19
  54                   JUNCTION     0.32     2.07    56.93     0  16:23        1.99
  55                   JUNCTION     0.15     1.86    57.09     0  16:24        1.76
  56a                  JUNCTION     0.27     1.68    57.18     0  16:24        1.64
  57                   JUNCTION     0.24     2.25    58.34     0  16:27        1.94
  58                   JUNCTION     0.42     2.44    58.52     0  16:31        2.02
  59                   JUNCTION     0.55     2.67    58.75     0  16:27        2.30
  60                   JUNCTION     0.79     2.97    59.06     0  16:31        2.62
  61                   JUNCTION     0.82     3.06    59.14     0  16:30        2.80
  62                   JUNCTION     0.11     1.46    59.37     0  16:30        1.02
  63                   JUNCTION     0.24     2.39    60.30     0  16:29        2.08
  64                   JUNCTION     0.16     2.09    60.25     0  16:30        1.88
  65                   JUNCTION     0.27     3.23    61.66     0  16:27        3.11
  66                   JUNCTION     0.40     3.15    61.67     0  16:24        3.02
  67                   JUNCTION     0.44     3.22    61.75     0  16:27        3.11
  68                   JUNCTION     0.15     2.14    61.66     0  16:27        1.95
  69                   JUNCTION     0.22     2.96    62.76     0  16:22        2.52
  70                   JUNCTION     0.67     3.14    62.97     0  16:22        2.77
  71                   JUNCTION     0.44     2.89    62.93     0  16:23        2.55
  72                   JUNCTION     0.62     2.94    62.98     0  16:22        2.68
  73                   JUNCTION     0.80     3.02    63.07     0  16:22        2.85
  74                   JUNCTION     0.83     3.05    63.09     0  16:21        2.89
  75                   JUNCTION     0.37     2.57    63.22     0  16:22        2.29
  76                   JUNCTION     0.34     2.40    63.36     0  16:22        2.07
  77                   JUNCTION     0.13     1.72    63.29     0  16:22        1.41
  78                   JUNCTION     0.50     2.27    63.84     0  16:23        1.84
  79                   JUNCTION     0.24     1.58    63.76     0  16:23        1.11
  80                   JUNCTION     0.17     1.54    64.16     0  16:22        0.97
  81                   JUNCTION     0.21     1.87    64.69     0  16:22        1.16
  82                   JUNCTION     0.21     2.28    65.32     0  16:21        1.16
  83                   JUNCTION     0.21     2.48    65.73     0  16:21        1.15
  84                   JUNCTION     0.21     2.54    66.00     0  16:21        1.14
  85                   JUNCTION     0.19     2.33    66.00     0  16:21        0.91
  86                   JUNCTION     0.19     2.12    66.00     0  16:21        0.77
  87                   JUNCTION     0.18     2.84    66.93     0  16:21        0.69
  88                   JUNCTION     0.18     2.76    67.06     0  16:21        0.65
  89                   JUNCTION     0.18     1.86    66.36     0  16:21        0.62
  90                   JUNCTION     0.18     1.59    66.38     0  16:21        0.61
  91                   JUNCTION     0.11     1.54    66.54     0  16:20        0.71
  92                   JUNCTION     0.11     1.41    66.62     0  16:20        0.71
  93                   JUNCTION     0.11     1.30    66.72     0  16:20        0.71
  94                   JUNCTION     0.11     1.22    66.85     0  16:20        0.71
  95                   JUNCTION     0.11     1.16    67.00     0  16:20        0.70
  96                   JUNCTION     0.11     1.12    67.17     0  16:20        0.69
  97                   JUNCTION     0.11     1.09    67.35     0  16:21        0.70
  98                   JUNCTION     0.15     1.23    67.52     0  16:23        0.87
  99                   JUNCTION     0.16     1.35    67.67     0  16:20        0.94
  100                  JUNCTION     0.17     1.47    67.82     0  16:20        0.98
  101                  JUNCTION     0.17     1.57    67.95     0  16:20        1.03
  102                  JUNCTION     0.16     1.62    68.06     0  16:20        1.02
  103                  JUNCTION     0.16     1.65    68.15     0  16:20        1.01
  104                  JUNCTION     0.16     1.68    68.24     0  16:20        1.00
  105                  JUNCTION     0.16     1.70    68.32     0  16:20        1.00
  106                  JUNCTION     0.15     1.73    68.41     0  16:20        0.99
  107                  JUNCTION     0.15     1.75    68.49     0  16:21        0.98
  108                  JUNCTION     0.15     1.77    68.57     0  16:21        0.97
  109                  JUNCTION     0.15     1.77    68.63     0  16:20        0.96
  110                  JUNCTION     0.15     1.77    68.69     0  16:21        0.95
  111                  JUNCTION     0.15     1.77    68.75     0  16:21        0.94
  112                  JUNCTION     0.15     1.76    68.82     0  16:20        0.93
  113                  JUNCTION     0.11     1.97    69.62     0  16:20        0.76
  114                  JUNCTION     0.10     2.34    70.69     0  16:20        0.73
  115                  JUNCTION     0.11     2.67    71.61     0  16:20        0.73
  116                  JUNCTION     0.11     3.12    72.93     0  16:20        0.72
  117                  JUNCTION     0.20     3.83    74.25     0  16:16        1.63
  118                  JUNCTION     0.22     3.56    74.58     0  16:16        2.40
  119                  JUNCTION     0.10     1.79    73.40     0  16:16        1.79
  120                  JUNCTION     0.07     1.21    73.42     0  16:17        1.21
  121                  JUNCTION     0.06     1.32    74.14     0  16:17        0.73
  122                  JUNCTION     0.05     1.95    75.40     0  16:17        0.57
  123                  JUNCTION     0.05     1.30    75.44     0  16:17        0.56
  124                  JUNCTION     0.09     2.89    75.41     0  16:17        1.20
  125                  JUNCTION     0.13     1.91    74.74     0  16:17        1.21
  126                  JUNCTION     0.12     1.22    74.35     0  16:17        1.22
  127                  JUNCTION     0.12     1.27    74.70     0  16:17        1.25
  128                  JUNCTION     0.12     1.29    75.04     0  16:17        1.29
  129                  JUNCTION     0.03     1.05    75.17     0  16:18        0.93
  130                  JUNCTION     0.01     0.56    75.17     0  16:18        0.45
  131                  JUNCTION     0.00     0.06    75.17     0  16:19        0.00
  132                  JUNCTION     0.23     1.42    66.36     0  16:21        0.55
  133                  JUNCTION     0.22     1.30    66.39     0  16:21        0.40
  134                  JUNCTION     0.22     1.17    66.41     0  16:22        0.33
  135                  JUNCTION     0.22     0.96    66.34     0  16:22        0.31
  136                  JUNCTION     0.22     0.76    66.30     0  16:22        0.30
  137                  JUNCTION     0.32     0.77    66.34     0  16:22        0.40
  138                  JUNCTION     0.58     0.84    66.41     0  16:23        0.71
  139                  JUNCTION     0.66     0.88    66.47     0  16:23        0.80
  140                  JUNCTION     0.71     0.92    66.52     0  16:23        0.86
  141                  JUNCTION     0.75     0.95    66.58     0  16:23        0.92
  142                  JUNCTION     0.79     0.98    66.62     0  16:23        0.96
  143                  JUNCTION     0.82     1.00    66.66     0  16:02        1.00
  144                  JUNCTION     0.84     1.07    66.74     0  16:20        1.03
  145                  JUNCTION     0.87     1.06    66.75     0  16:00        1.06
  146                  JUNCTION     0.90     1.27    66.97     0  16:19        1.25
  147                  JUNCTION     0.94     1.44    67.16     0  16:02        1.44
  148                  JUNCTION     0.98     1.78    67.52     0  16:03        1.78
  149                  JUNCTION     1.00     2.23    67.99     0  16:15        2.10
  150                  JUNCTION     0.44     3.23    69.61     0  16:18        1.83
  151                  JUNCTION     0.54     3.01    69.83     0  16:15        1.48
  152                  JUNCTION     0.55     2.50    69.92     0  16:23        1.35
  153                  JUNCTION     0.55     2.15    70.17     0  16:23        1.22
  154                  JUNCTION     0.54     1.79    70.41     0  16:15        1.09
  155                  JUNCTION     0.54     1.41    70.62     0  16:15        0.95
  156                  JUNCTION     0.53     0.92    70.74     0  16:15        0.81
  157                  JUNCTION     0.52     0.66    71.08     0  16:02        0.66
  158                  JUNCTION     0.50     0.50    71.52     0  00:00        0.50
  160                  JUNCTION     0.28     2.10    47.65     0  16:22        1.91
  161                  JUNCTION     0.20     2.08    47.73     0  16:22        1.84
  162                  JUNCTION     0.14     2.01    47.74     0  16:22        1.76
  163                  JUNCTION     0.12     1.93    47.76     0  16:21        1.67
  164                  JUNCTION     0.10     1.86    47.78     0  16:22        1.59
  165                  JUNCTION     0.09     1.79    47.80     0  16:22        1.50
  166                  JUNCTION     0.07     1.72    47.82     0  16:22        1.42
  167                  JUNCTION     0.06     1.57    47.85     0  16:22        1.25
  168                  JUNCTION     0.05     1.49    47.85     0  16:22        1.16
  169                  JUNCTION     0.04     1.40    47.86     0  16:22        1.07
  170                  JUNCTION     0.04     1.31    47.86     0  16:22        0.98
  171                  JUNCTION     0.03     1.17    47.88     0  16:22        0.81
  172                  JUNCTION     0.15     1.44    48.72     0  16:22        1.07
  173                  JUNCTION     0.03     0.75    48.76     0  16:22        0.35
  174                  JUNCTION     0.00     0.02    49.38     0  16:20        0.00
  47a                  JUNCTION     0.24     1.39    53.60     0  16:21        1.19
  47b                  JUNCTION     0.42     1.69    53.93     0  16:20        1.62
  56b                  JUNCTION     0.38     2.36    57.86     0  16:23        2.36
  159                  JUNCTION     0.50     0.50    72.01     0  00:00        0.50
  0                    OUTFALL      2.00     2.00    34.39     0  00:00        2.00
  
  
  *******************
  Node Inflow Summary
  *******************
  
  -------------------------------------------------------------------------------------------------
                                  Maximum  Maximum                  Lateral       Total        Flow
                                  Lateral    Total  Time of Max      Inflow      Inflow     Balance
                                   Inflow   Inflow   Occurrence      Volume      Volume       Error
  Node                 Type           CMS      CMS  days hr:min    10^6 ltr    10^6 ltr     Percent
  -------------------------------------------------------------------------------------------------
  1                    JUNCTION     0.075   54.927     0  16:30       0.149         768       0.002
  2                    JUNCTION     0.042   49.281     0  16:31      0.0815         768       0.019
  3                    JUNCTION     2.071   48.482     0  16:31        3.55         768       0.013
  4                    JUNCTION     0.000   48.190     0  16:27           0         764       0.013
  5                    JUNCTION     0.000   48.100     0  16:27           0         764       0.013
  6                    JUNCTION     0.000   48.051     0  16:27           0         764       0.013
  7                    JUNCTION     0.064   48.023     0  16:27      0.0901         765       0.013
  8                    JUNCTION     0.314   48.152     0  16:26       0.383         765       0.013
  9                    JUNCTION     0.106   48.263     0  16:25        0.12         764       0.013
  10                   JUNCTION     0.170   48.288     0  16:25       0.149         764       0.014
  11                   JUNCTION     0.708   48.877     0  16:25       0.775         764       0.013
  12                   JUNCTION     0.194   48.685     0  16:25       0.183         763       0.013
  13                   JUNCTION     1.278   49.059     0  16:24        1.64         763       0.013
  14                   JUNCTION     0.112   48.799     0  16:24       0.105         762       0.013
  15                   JUNCTION     0.101   48.854     0  16:24       0.099         762       0.013
  16                   JUNCTION     0.166   48.810     0  16:24       0.153         762       0.013
  17                   JUNCTION     5.271   48.931     0  16:24        23.9         762       0.013
  18                   JUNCTION     0.099   47.311     0  16:24      0.0874         738       0.014
  19                   JUNCTION     1.123   47.365     0  16:24        1.37         738       0.014
  20                   JUNCTION     2.854   47.550     0  16:24        4.72         737       0.014
  21                   JUNCTION     0.150   47.519     0  16:24       0.162         732       0.014
  22                   JUNCTION     3.064   47.784     0  16:25        7.71         732       0.015
  23                   JUNCTION     0.205   47.441     0  16:27       0.216         725       0.015
  24                   JUNCTION     0.064   47.440     0  16:27      0.0597         725       0.010
  25                   JUNCTION     0.896   47.577     0  16:25        1.16         725       0.007
  26                   JUNCTION     2.177   47.544     0  16:25        3.59         724       0.011
  27                   JUNCTION     0.124   47.459     0  16:25       0.131         720       0.014
  28                   JUNCTION     0.293   47.447     0  16:25       0.302         720       0.017
  29                   JUNCTION     0.221   47.445     0  16:24       0.265         720       0.018
  30                   JUNCTION     0.379   47.473     0  16:22       0.404         720       0.015
  31                   JUNCTION     0.040   47.628     0  16:21      0.0621         720       0.014
  32                   JUNCTION     1.649   47.787     0  16:21        1.96         720       0.014
  33                   JUNCTION     0.000   47.888     0  16:21           0         718       0.014
  34                   JUNCTION     0.000   47.961     0  16:21           0         718       0.015
  35                   JUNCTION     0.025   65.218     0  16:22      0.0908         722       0.022
  36                   JUNCTION     0.000   36.526     0  16:22           0         621       0.017
  37                   JUNCTION     0.372   36.105     0  16:22       0.414         621       0.017
  38                   JUNCTION     0.381   36.083     0  16:23       0.441         621       0.011
  39                   JUNCTION     0.000   36.088     0  16:23           0         621       0.009
  40                   JUNCTION     0.108   36.753     0  16:21         0.1         621       0.031
  41                   JUNCTION     1.070   31.681     0  16:21        1.61         605       0.016
  42                   JUNCTION     1.191   31.235     0  16:21        1.47         604       0.018
  43_depth             JUNCTION     0.314   30.849     0  16:20       0.343         602       0.014
  44                   JUNCTION     0.000   30.840     0  16:20           0         602       0.008
  45                   JUNCTION     7.693   30.931     0  16:20        9.46         602       0.005
  46                   JUNCTION     5.400   24.813     0  16:20        12.5         593       0.024
  47                   JUNCTION     0.517   20.186     0  16:19        0.46         580       0.008
  48                   JUNCTION     0.284   20.297     0  16:19       0.221         580      -0.002
  49                   JUNCTION     0.878   38.124     0  16:24       0.944         616       0.002
  50                   JUNCTION     0.712   37.883     0  16:23       0.564         615       0.019
  51                   JUNCTION     0.000   37.630     0  16:23           0         614       0.007
  52                   JUNCTION     1.298   41.757     0  16:24        1.17         617      -0.013
  53                   JUNCTION     8.456   41.265     0  16:24         229         616       0.030
  54                   JUNCTION     0.404   38.704     0  16:24       0.311         387       0.015
  55                   JUNCTION     5.461   38.634     0  16:23        7.07         386       0.007
  56a                  JUNCTION     0.000   37.214     0  16:42           0         379       0.005
  57                   JUNCTION     0.048   59.729     0  16:27       0.153         389       0.013
  58                   JUNCTION     0.953   58.903     0  16:27        1.34         389       0.024
  59                   JUNCTION     0.000   59.202     0  16:31           0         388       0.019
  60                   JUNCTION     0.185   62.612     0  16:30       0.206         388       0.029
  61                   JUNCTION     0.317   62.867     0  16:30       0.355         387      -0.233
  62                   JUNCTION     0.128   81.944     0  16:29       0.141         387       0.071
  63                   JUNCTION     1.306   59.475     0  16:30        1.73         387       0.015
  64                   JUNCTION     2.235   47.741     0  16:25        3.63         385       0.009
  65                   JUNCTION     0.451   51.386     0  16:27       0.505         381       0.007
  66                   JUNCTION     5.997   56.937     0  16:23        6.78         381       0.017
  67                   JUNCTION     0.000   55.209     0  16:22           0         374      -0.009
  68                   JUNCTION     0.000   56.802     0  16:22           0         374       0.012
  69                   JUNCTION     4.463   57.939     0  16:22        6.41         374       0.004
  70                   JUNCTION     0.917   56.990     0  16:21       0.958         368       0.023
  71                   JUNCTION    30.289   60.824     0  16:21        32.1         367       0.014
  72                   JUNCTION     0.000   43.086     0  16:21           0         335       0.025
  73                   JUNCTION     0.527   44.371     0  16:21        0.49         335       0.036
  74                   JUNCTION     0.397   61.738     0  16:23        1.07         339       0.050
  75                   JUNCTION     0.086   61.620     0  16:23        0.27         338       0.026
  76                   JUNCTION     0.000   60.484     0  16:23           0         338       0.027
  77                   JUNCTION     0.036   59.118     0  16:23      0.0952         338       0.026
  78                   JUNCTION     1.044   58.963     0  16:21        1.29         338       0.006
  79                   JUNCTION     0.376   58.541     0  16:22         0.5         337       0.008
  80                   JUNCTION     0.037   58.374     0  16:22      0.0363         337       0.003
  81                   JUNCTION     0.585   58.540     0  16:21       0.708         337       0.005
  82                   JUNCTION     0.000   57.816     0  16:22           0         336      -0.002
  83                   JUNCTION     0.678   57.756     0  16:22       0.799         336       0.003
  84                   JUNCTION    40.119   57.325     0  16:22          94         335       0.007
  85                   JUNCTION     0.000   26.935     0  16:24           0         241       0.008
  86                   JUNCTION     0.000   29.119     0  16:21           0         242       0.006
  87                   JUNCTION     0.219   28.471     0  16:21       0.178         242       0.007
  88                   JUNCTION     2.636   29.694     0  16:21        2.99         241       0.006
  89                   JUNCTION     0.233   27.510     0  16:20       0.179         238       0.008
  90                   JUNCTION     0.036   28.877     0  16:20      0.0267         238       0.008
  91                   JUNCTION     0.048   16.032     0  16:22      0.0357        74.7      -0.000
  92                   JUNCTION     0.136   15.799     0  16:21       0.104        74.7       0.001
  93                   JUNCTION     0.068   15.529     0  16:21      0.0516        74.6       0.001
  94                   JUNCTION     0.624   15.478     0  16:21       0.884        74.5       0.000
  95                   JUNCTION     0.167   15.416     0  16:21       0.147        73.6       0.001
  96                   JUNCTION     0.083   15.177     0  16:21      0.0615        73.5      -0.002
  97                   JUNCTION     0.471   14.969     0  16:21       0.447        73.4       0.002
  98                   JUNCTION     0.447   14.868     0  16:21       0.415          73       0.009
  99                   JUNCTION     0.000   14.771     0  16:21           0        72.6       0.002
  100                  JUNCTION     0.000   14.709     0  16:21           0        72.6       0.003
  101                  JUNCTION     0.273   14.615     0  16:21       0.275        72.6       0.003
  102                  JUNCTION     0.256   14.541     0  16:21       0.248        72.3       0.001
  103                  JUNCTION     0.033   14.486     0  16:21       0.034        72.1       0.003
  104                  JUNCTION     0.000   14.414     0  16:21           0          72       0.002
  105                  JUNCTION     0.177   14.367     0  16:20       0.171          72       0.001
  106                  JUNCTION     0.149   14.485     0  16:20       0.131        71.9       0.002
  107                  JUNCTION     0.277   14.531     0  16:20       0.215        71.7       0.002
  108                  JUNCTION     2.416   14.411     0  16:20        2.72        71.5       0.002
  109                  JUNCTION     0.000   12.227     0  16:20           0        68.8       0.002
  110                  JUNCTION     0.000   12.419     0  16:20           0        68.8       0.001
  111                  JUNCTION     0.000   12.715     0  16:20           0        68.8       0.002
  112                  JUNCTION     0.657   13.009     0  16:20       0.603        68.8       0.005
  113                  JUNCTION     0.000   12.348     0  16:20           0        68.2       0.001
  114                  JUNCTION     0.034   12.346     0  16:20      0.0319        68.2       0.002
  115                  JUNCTION     0.050   12.316     0  16:20       0.043        68.2       0.002
  116                  JUNCTION     9.927   12.268     0  16:20        15.2        68.1       0.005
  117                  JUNCTION     0.000    4.476     0  16:17           0        52.9      -0.003
  118                  JUNCTION     0.028    5.441     0  16:24      0.0258        55.4       0.002
  119                  JUNCTION     0.379    4.434     0  16:16       0.401        17.9      -0.022
  120                  JUNCTION     0.168    8.329     0  16:20       0.145        21.3      -0.013
  121                  JUNCTION     0.241    8.179     0  16:20       0.198        21.2       0.001
  122                  JUNCTION     0.891    7.938     0  16:20       0.802          21       0.000
  123                  JUNCTION    13.207   13.207     0  16:20        21.3        21.3       0.001
  124                  JUNCTION     0.256    5.435     0  16:24       0.313        43.1       0.000
  125                  JUNCTION     0.000    6.076     0  16:17           0        42.8      -0.002
  126                  JUNCTION     0.000    6.124     0  16:17           0        43.2       0.000
  127                  JUNCTION     0.032    6.161     0  16:17      0.0552        43.2      -0.001
  128                  JUNCTION    15.029   15.370     0  16:20        50.2        50.6       0.002
  129                  JUNCTION     0.000    2.026     0  16:17           0       0.566       0.014
  130                  JUNCTION     0.055    1.427     0  16:18      0.0586       0.226       0.024
  131                  JUNCTION     0.017    0.122     0  16:18       0.014      0.0171       0.014
  132                  JUNCTION     7.688   11.406     0  16:20        12.9         164       0.010
  133                  JUNCTION     0.000    4.271     0  16:20           0         151       0.011
  134                  JUNCTION     0.000    4.210     0  16:21           0         151       0.010
  135                  JUNCTION     0.000    4.260     0  16:20           0         151       0.010
  136                  JUNCTION     3.002    4.352     0  16:20        4.32         151       0.014
  137                  JUNCTION     0.121    1.494     0  16:20       0.133         146       0.019
  138                  JUNCTION     0.175    1.408     0  16:20       0.363         146       0.022
  139                  JUNCTION     0.085    1.265     0  16:18       0.132         146       0.025
  140                  JUNCTION     0.000    1.264     1  06:02           0         146       0.028
  141                  JUNCTION     0.041    1.306     1  06:01      0.0724         146       0.032
  142                  JUNCTION     0.050    1.348     1  06:01      0.0719         146       0.033
  143                  JUNCTION     0.178    1.815     0  16:20       0.318         147       0.032
  144                  JUNCTION     0.990    1.639     0  16:20        1.14         146       0.032
  145                  JUNCTION     0.088    2.687     0  16:20       0.073         162       0.030
  146                  JUNCTION     0.113    2.598     0  16:20        0.14         162       0.030
  147                  JUNCTION     0.000    3.299     1  07:06           0         166       0.031
  148                  JUNCTION    32.225   36.162     0  16:20        49.3         189       0.028
  149                  JUNCTION     0.003    7.165     0  16:20      0.0119         142       0.036
  150                  JUNCTION    10.351   10.805     0  16:20        21.9         142       0.005
  151                  JUNCTION     0.000    0.720     1  06:02           0         120       0.010
  152                  JUNCTION     0.000    0.720     1  06:02           0         120       0.012
  153                  JUNCTION     0.000    0.721     1  06:02           0         120       0.012
  154                  JUNCTION     0.334    0.734     0  16:20       0.377         120       0.002
  155                  JUNCTION     0.070    0.706     0  16:00      0.0867         120       0.002
  156                  JUNCTION     0.307    0.836     0  16:20       0.323         120       0.002
  157                  JUNCTION     0.718    1.321     0  16:20       0.892         120       0.002
  158                  JUNCTION     0.000    0.741     0  00:00           0         121       0.011
  160                  JUNCTION     0.000   28.937     0  16:23           0         101       0.038
  161                  JUNCTION    25.367   28.804     0  16:22        88.8         102       0.012
  162                  JUNCTION     0.027    8.287     0  16:23      0.0791          14       0.007
  163                  JUNCTION     0.090    8.186     0  16:23       0.151        13.2       0.007
  164                  JUNCTION     0.000    8.011     0  16:23           0        12.5       0.008
  165                  JUNCTION     1.559    7.796     0  16:23        1.47        12.3       0.007
  166                  JUNCTION     0.948    6.909     0  16:23       0.802        10.6       0.012
  167                  JUNCTION     0.115    6.206     0  16:23      0.0907        9.67       0.014
  168                  JUNCTION     1.193    5.933     0  16:23        1.23        9.54       0.008
  169                  JUNCTION     0.149    4.931     0  16:23       0.118        8.31       0.010
  170                  JUNCTION     0.484    5.179     0  16:20       0.424        8.19       0.014
  171                  JUNCTION     5.518    5.518     0  16:20        7.77        7.77       0.008
  172                  JUNCTION     0.880    8.131     0  16:20       0.974        16.1       0.101
  173                  JUNCTION     7.475    7.555     0  16:20        14.8        14.9       0.019
  174                  JUNCTION     0.090    0.090     0  16:20      0.0723      0.0723       0.001
  47a                  JUNCTION     0.000   20.287     0  16:19           0         580       0.002
  47b                  JUNCTION     0.000   20.468     0  16:19           0         580       0.002
  56b                  JUNCTION     0.000   60.592     0  16:31           0         389       0.006
  159                  JUNCTION    20.414   20.414     0  16:20         335         335       0.001
  0                    OUTFALL      0.000   50.788     0  16:30           0         768       0.000
  
  
  **********************
  Node Surcharge Summary
  **********************
  
  Surcharging occurs when water rises above the top of the highest conduit.
  ---------------------------------------------------------------------
                                               Max. Height   Min. Depth
                                   Hours       Above Crown    Below Rim
  Node                 Type      Surcharged         Meters       Meters
  ---------------------------------------------------------------------
  7                    JUNCTION        0.05          0.003        1.630
  8                    JUNCTION        0.14          0.010        1.308
  9                    JUNCTION        0.16          0.020        0.985
  10                   JUNCTION        0.17          0.027        0.660
  11                   JUNCTION        0.18          0.031        0.342
  12                   JUNCTION        0.18          0.063        3.068
  13                   JUNCTION        0.19          0.055        2.763
  14                   JUNCTION        0.19          0.088        2.415
  15                   JUNCTION        0.19          0.081        2.107
  16                   JUNCTION        0.19          0.089        1.779
  17                   JUNCTION        0.19          0.095        1.459
  18                   JUNCTION        0.18          0.092        1.145
  19                   JUNCTION        0.16          0.078        0.838
  20                   JUNCTION        0.15          0.065        0.534
  21                   JUNCTION        0.13          0.044        0.212
  22                   JUNCTION        0.12          0.000        0.000
  23                   JUNCTION        0.07          0.000        0.000
  24                   JUNCTION        0.07          0.000        0.000
  25                   JUNCTION        0.07          0.000        0.000
  26                   JUNCTION        0.06          0.003        1.786
  27                   JUNCTION        0.05          0.003        1.460
  28                   JUNCTION        0.04          0.004        1.143
  29                   JUNCTION        0.03          0.003        0.692
  30                   JUNCTION        0.03          0.003        0.343
  31                   JUNCTION        0.03          0.002        0.018
  32                   JUNCTION        0.04          0.000        0.000
  33                   JUNCTION        0.05          0.000        0.000
  34                   JUNCTION        0.08          0.000        0.000
  35                   JUNCTION        0.10          0.000        0.000
  48                   JUNCTION        0.69          0.091        0.064
  49                   JUNCTION        0.66          0.014        0.000
  52                   JUNCTION        0.41          0.000        0.000
  54                   JUNCTION        0.46          0.207        0.096
  74                   JUNCTION        0.09          0.000        0.000
  82                   JUNCTION        0.04          0.236        0.664
  83                   JUNCTION        0.06          0.438        0.012
  84                   JUNCTION        0.08          0.498        0.000
  85                   JUNCTION        0.05          0.287        0.000
  86                   JUNCTION        0.04          0.078        0.000
  87                   JUNCTION        0.01          0.797        0.000
  88                   JUNCTION        0.01          0.716        0.000
  113                  JUNCTION        0.13          0.966        0.600
  114                  JUNCTION        0.12          1.344        3.284
  115                  JUNCTION        0.11          1.667        4.019
  116                  JUNCTION        0.10          2.124        3.505
  117                  JUNCTION        1.02          2.835        0.096
  118                  JUNCTION        1.10          2.563        0.000
  119                  JUNCTION        0.95          0.793        0.000
  120                  JUNCTION        0.74          0.215        0.000
  121                  JUNCTION        0.13          0.318        0.000
  122                  JUNCTION        0.12          0.954        0.000
  123                  JUNCTION        0.11          0.297        0.000
  124                  JUNCTION        0.70          1.888        0.099
  125                  JUNCTION        0.62          0.910        0.000
  126                  JUNCTION        0.60          0.224        0.000
  127                  JUNCTION        0.59          0.273        0.000
  128                  JUNCTION        0.58          0.285        0.000
  129                  JUNCTION        0.01          0.051        1.461
  143                  JUNCTION        3.83          0.000        0.000
  144                  JUNCTION        6.53          0.069        0.128
  145                  JUNCTION        7.09          0.062        0.000
  146                  JUNCTION        7.84          0.266        0.010
  147                  JUNCTION        8.57          0.439        0.000
  148                  JUNCTION        9.29          0.781        0.000
  149                  JUNCTION        9.47          1.234        0.000
  150                  JUNCTION        2.40          2.230        0.000
  151                  JUNCTION        0.70          2.011        0.489
  152                  JUNCTION       47.70          2.004        0.129
  153                  JUNCTION       47.71          1.651        0.015
  154                  JUNCTION       47.71          1.292        0.000
  155                  JUNCTION       47.72          0.906        0.205
  156                  JUNCTION       47.72          0.416        0.000
  157                  JUNCTION       47.73          0.157        0.000
  158                  JUNCTION       47.74          0.000        0.000
  56b                  JUNCTION        0.50          0.378        0.000
  159                  JUNCTION       47.75          0.000        0.000
  
  
  *********************
  Node Flooding Summary
  *********************
  
  Flooding refers to all water that overflows a node, whether it ponds or not.
  --------------------------------------------------------------------------
                                                             Total   Maximum
                                 Maximum   Time of Max       Flood    Ponded
                        Hours       Rate    Occurrence      Volume     Depth
  Node                 Flooded       CMS   days hr:min    10^6 ltr    Meters
  --------------------------------------------------------------------------
  22                      0.12     1.453      0  16:27       0.406     0.000
  23                      0.07     0.084      0  16:24       0.003     0.000
  24                      0.07     0.049      0  16:24       0.001     0.000
  25                      0.07     0.138      0  16:25       0.022     0.000
  32                      0.04     0.067      0  16:25       0.004     0.000
  33                      0.04     0.024      0  16:22       0.000     0.000
  34                      0.06     0.113      0  16:21       0.002     0.000
  35                      0.10    17.759      0  16:22       4.169     0.000
  49                      0.65    18.705      0  16:24      36.177     0.000
  52                      0.41     4.127      0  16:24       2.766     0.000
  74                      0.09    26.891      0  16:23       4.758     0.000
  84                      0.01     0.123      0  16:21       0.000     0.000
  85                      0.01     0.640      0  16:21       0.001     0.000
  86                      0.03     9.526      0  16:21       0.541     0.000
  87                      0.01     2.368      0  16:21       0.002     0.000
  88                      0.01     4.230      0  16:21       0.004     0.000
  118                     0.01     1.721      0  16:16       0.001     0.000
  119                     0.69     4.276      0  16:20       5.611     0.000
  120                     0.54     6.941      0  16:20       6.340     0.000
  121                     0.01     0.819      0  16:17       0.002     0.000
  122                     0.01     0.527      0  16:17       0.000     0.000
  123                     0.10     6.156      0  16:20       1.149     0.000
  125                     0.01     2.264      0  16:17       0.004     0.000
  126                     0.53     1.643      0  16:17       0.361     0.000
  127                     0.01     0.570      0  16:17       0.001     0.000
  128                     0.51     9.792      0  16:20       7.132     0.000
  143                     3.80     0.709      0  16:20       0.620     0.000
  145                     5.82     2.041      0  16:20      16.944     0.000
  147                     2.11     0.814      0  16:20       4.426     0.000
  148                     1.22    32.854      0  16:20      22.370     0.000
  149                     0.32     3.227      0  16:20       1.846     0.000
  150                     0.09     3.641      0  16:20       0.571     0.000
  154                     0.10     0.280      0  16:20       0.059     0.000
  156                     0.28     0.506      0  16:20       0.204     0.000
  157                     0.92     0.791      0  16:20       0.481     0.000
  158                    47.74     0.099      0  16:08       1.209     0.000
  56b                     0.34    23.937      0  16:31       9.793     0.000
  159                    47.75    19.708      0  16:20     214.783     0.000
  
  
  ***********************
  Outfall Loading Summary
  ***********************
  
  -----------------------------------------------------------
                         Flow       Avg       Max       Total
                         Freq      Flow      Flow      Volume
  Outfall Node           Pcnt       CMS       CMS    10^6 ltr
  -----------------------------------------------------------
  0                     98.82     5.566    50.788     767.611
  -----------------------------------------------------------
  System                98.82     5.566    50.788     767.611
  
  
  ********************
  Link Flow Summary
  ********************
  
  -----------------------------------------------------------------------------
                                 Maximum  Time of Max   Maximum    Max/    Max/
                                  |Flow|   Occurrence   |Veloc|    Full    Full
  Link                 Type          CMS  days hr:min     m/sec    Flow   Depth
  -----------------------------------------------------------------------------
  1                    CONDUIT    50.788     0  16:30      4.60    0.39    0.76
  2                    CONDUIT    54.927     0  16:30      5.19    1.16    0.71
  3                    CONDUIT    49.280     0  16:31      3.84    1.04    0.92
  4                    CONDUIT    48.434     0  16:31      3.52    1.02    0.96
  5                    CONDUIT    48.190     0  16:27      3.37    1.02    0.98
  6                    CONDUIT    48.100     0  16:27      3.29    1.01    0.99
  7                    CONDUIT    48.051     0  16:27      3.25    1.01    1.00
  8                    CONDUIT    48.023     0  16:27      3.23    1.01    1.00
  9                    CONDUIT    48.150     0  16:26      3.23    1.01    1.00
  10                   CONDUIT    48.263     0  16:25      3.24    1.02    1.00
  11                   CONDUIT    48.288     0  16:25      3.24    1.02    1.00
  12                   CONDUIT    48.867     0  16:25      3.29    1.03    1.00
  13                   CONDUIT    48.685     0  16:25      3.27    1.03    1.00
  14                   CONDUIT    49.027     0  16:24      3.29    1.03    1.00
  15                   CONDUIT    48.798     0  16:24      3.28    1.03    1.00
  16                   CONDUIT    48.853     0  16:24      3.28    1.03    1.00
  17                   CONDUIT    48.809     0  16:24      3.27    1.03    1.00
  18                   CONDUIT    47.383     0  16:24      3.18    1.00    1.00
  19                   CONDUIT    47.310     0  16:24      3.17    1.00    1.00
  20                   CONDUIT    47.341     0  16:24      3.18    1.00    1.00
  21                   CONDUIT    47.403     0  16:24      3.19    1.00    1.00
  22                   CONDUIT    47.519     0  16:24      3.20    1.00    1.00
  23                   CONDUIT    47.440     0  16:28      3.18    1.00    1.00
  24                   CONDUIT    47.440     0  16:28      3.19    1.00    1.00
  25                   CONDUIT    47.440     0  16:28      3.19    1.00    1.00
  26                   CONDUIT    47.555     0  16:25      3.19    1.00    1.00
  27                   CONDUIT    47.448     0  16:25      3.19    1.00    1.00
  28                   CONDUIT    47.459     0  16:25      3.20    1.00    1.00
  29                   CONDUIT    47.446     0  16:25      3.21    1.00    1.00
  30                   CONDUIT    47.444     0  16:24      3.21    1.00    1.00
  31                   CONDUIT    47.470     0  16:22      3.21    1.00    1.00
  32                   CONDUIT    47.628     0  16:21      3.22    1.00    1.00
  33                   CONDUIT    47.768     0  16:21      3.22    1.01    1.00
  34                   CONDUIT    47.888     0  16:21      3.22    1.01    1.00
  35                   CONDUIT    47.961     0  16:21      3.23    1.01    1.00
  36                   CONDUIT    36.934     0  16:22      2.56    0.78    0.97
  37                   CONDUIT    36.526     0  16:22      2.70    0.77    0.92
  38                   CONDUIT    36.099     0  16:22      2.81    0.76    0.88
  39                   CONDUIT    36.080     0  16:23      2.08    0.48    0.90
  40                   CHANNEL    36.088     0  16:23      2.59    0.62    0.88
  41                   CHANNEL    31.783     0  16:21      4.00    0.08    0.35
  42                   CONDUIT    31.624     0  16:21      3.45    0.79    0.62
  43                   CHANNEL    31.203     0  16:21      2.90    0.09    0.44
  44                   CHANNEL    30.847     0  16:20      2.97    0.08    0.32
  45                   CONDUIT    30.840     0  16:20      5.22    0.33    0.51
  46                   CHANNEL    24.330     0  16:21      2.07    0.52    0.86
  47                   CHANNEL    20.116     0  16:59      1.85    0.08    0.75
  47a                  CONDUIT    20.071     0  16:58      2.94    0.22    0.88
  49                   CHANNEL    20.058     0  16:58      2.31    0.58    1.00
  50                   CHANNEL    37.819     0  16:35      4.82    4.18    1.00
  51                   CHANNEL    37.630     0  16:25      2.11    0.15    0.65
  52                   CONDUIT    37.630     0  16:23      5.55    1.31    0.77
  53                   CHANNEL    41.526     0  16:24      3.24    0.55    0.96
  54                   CHANNEL    38.727     0  16:24      3.20    0.55    1.00
  55                   CONDUIT    38.662     0  16:24      1.91    0.35    1.00
  56a                  CHANNEL    37.331     0  16:42      4.17    0.04    0.25
  57                   CHANNEL    60.592     0  16:31      2.88    0.68    1.00
  58                   CHANNEL    59.729     0  16:27      2.82    2.02    0.29
  59                   CHANNEL    58.842     0  16:27      2.79    1.75    0.29
  60                   CHANNEL    59.202     0  16:31      2.92    2.83    0.35
  61                   CHANNEL    62.611     0  16:30      2.46   11.49    0.75
  62                   CHANNEL    62.865     0  16:30      3.98    0.05    0.37
  63                   CHANNEL    81.944     0  16:29      5.56    5.55    0.40
  64                   CHANNEL    59.457     0  16:30      4.16    0.22    0.72
  65                   CONDUIT    47.653     0  16:25      7.06    1.25    1.00
  66                   CHANNEL    51.383     0  16:27      2.39    0.33    0.74
  67                   CHANNEL    56.888     0  16:23      2.74    2.26    0.69
  usgs_dis             CHANNEL    55.209     0  16:22      3.32    0.03    0.49
  70                   CHANNEL    54.774     0  16:22      3.24    1.88    0.83
  71                   CHANNEL    56.373     0  16:21      2.51    0.33    0.97
  72                   CHANNEL    42.754     0  16:27      1.83    9.16    0.87
  73                   CHANNEL    43.086     0  16:21      1.90   11.19    0.81
  74                   CHANNEL    43.997     0  16:21      1.44   14.34    1.00
  75                   CHANNEL    61.612     0  16:23      2.04    0.45    0.97
  76                   CHANNEL    61.592     0  16:23      2.32    0.20    0.54
  77                   CHANNEL    60.484     0  16:23      1.87    0.07    0.52
  78                   CHANNEL    59.106     0  16:23      4.67   10.32    0.50
  79                   CHANNEL    58.279     0  16:21      2.78    0.03    0.24
  80                   CONDUIT    31.844     0  16:21      6.00    1.03    0.85
  81                   CONDUIT    33.941     0  16:22      6.13    1.59    0.92
  82                   CONDUIT    32.039     0  16:23      5.63    1.50    1.00
  83                   CONDUIT    29.652     0  16:21      5.19    1.39    1.00
  84                   CONDUIT    28.298     0  16:22      4.96    1.33    1.00
  85                   CONDUIT    13.331     0  16:24      2.33    0.63    1.00
  86                   CONDUIT    13.083     0  16:23      2.59    0.61    1.00
  87                   CONDUIT    14.052     0  16:21      2.83    0.66    1.00
  88                   CONDUIT    13.836     0  16:21      3.08    0.65    1.00
  89                   CONDUIT    14.275     0  16:21      3.19    0.67    1.00
  90                   CONDUIT    15.356     0  16:20      3.36    0.72    0.91
  91                   CONDUIT    17.930     0  16:20      3.97    0.84    0.81
  92                   CONDUIT    16.003     0  16:22      3.80    0.75    0.79
  93                   CONDUIT    15.714     0  16:22      3.83    0.74    0.73
  94                   CONDUIT    15.479     0  16:21      3.87    0.73    0.68
  95                   CONDUIT    15.446     0  16:21      3.91    0.73    0.64
  96                   CONDUIT    15.415     0  16:21      3.97    0.72    0.62
  97                   CONDUIT    15.123     0  16:21      3.98    0.71    0.60
  98                   CONDUIT    14.963     0  16:21      3.74    1.86    0.63
  99                   CONDUIT    14.864     0  16:21      3.37    1.85    0.70
  100                  CONDUIT    14.771     0  16:21      3.11    1.83    0.77
  101                  CONDUIT    14.709     0  16:21      2.90    1.83    0.83
  102                  CONDUIT    14.612     0  16:21      2.78    1.28    0.87
  103                  CONDUIT    14.539     0  16:21      2.69    1.28    0.89
  104                  CONDUIT    14.486     0  16:21      2.64    1.27    0.91
  105                  CONDUIT    14.414     0  16:21      2.59    1.27    0.93
  106                  CONDUIT    14.366     0  16:20      2.56    1.26    0.94
  107                  CONDUIT    14.483     0  16:20      2.57    1.27    0.95
  108                  CONDUIT    14.282     0  16:20      2.53    1.25    0.96
  109                  CONDUIT    12.107     0  16:20      2.14    1.06    0.97
  110                  CONDUIT    12.227     0  16:20      2.22    1.07    0.97
  111                  CONDUIT    12.419     0  16:20      2.29    1.09    0.97
  112                  CONDUIT    12.715     0  16:20      2.35    1.12    0.96
[...]
  92                      1.00   0.29  0.00  0.00  0.03  0.67  0.00  0.00  0.59  0.00
  93                      1.00   0.29  0.00  0.00  0.03  0.68  0.00  0.00  0.60  0.00
  94                      1.00   0.29  0.00  0.00  0.03  0.68  0.00  0.00  0.59  0.00
  95                      1.00   0.29  0.00  0.00  0.04  0.67  0.00  0.00  0.59  0.00
  96                      1.00   0.29  0.00  0.00  0.03  0.68  0.00  0.00  0.59  0.00
  97                      1.00   0.29  0.00  0.00  0.03  0.68  0.00  0.00  0.58  0.00
  98                      1.00   0.29  0.00  0.00  0.54  0.17  0.00  0.00  0.00  0.00
  99                      1.00   0.29  0.00  0.00  0.71  0.00  0.00  0.00  0.19  0.00
  100                     1.00   0.29  0.00  0.00  0.71  0.00  0.00  0.00  0.21  0.00
  101                     1.00   0.29  0.00  0.00  0.71  0.00  0.00  0.00  0.21  0.00
  102                     1.00   0.29  0.00  0.00  0.71  0.00  0.00  0.00  0.40  0.00
  103                     1.00   0.29  0.00  0.00  0.71  0.00  0.00  0.00  0.41  0.00
  104                     1.00   0.29  0.00  0.00  0.71  0.00  0.00  0.00  0.42  0.00
  105                     1.00   0.29  0.00  0.00  0.71  0.00  0.00  0.00  0.46  0.00
  106                     1.00   0.29  0.00  0.00  0.71  0.00  0.00  0.00  0.50  0.00
  107                     1.00   0.29  0.00  0.00  0.71  0.00  0.00  0.00  0.53  0.00
  108                     1.00   0.29  0.00  0.00  0.71  0.00  0.00  0.00  0.56  0.00
  109                     1.00   0.29  0.00  0.00  0.71  0.00  0.00  0.00  0.43  0.00
  110                     1.00   0.29  0.00  0.00  0.71  0.00  0.00  0.00  0.49  0.00
  111                     1.00   0.29  0.00  0.00  0.71  0.00  0.00  0.00  0.54  0.00
  112                     1.00   0.29  0.00  0.00  0.71  0.00  0.00  0.00  0.59  0.00
  113                     1.00   0.29  0.00  0.00  0.70  0.00  0.00  0.00  0.64  0.00
  114                     1.00   0.29  0.00  0.00  0.47  0.24  0.00  0.00  0.60  0.00
  115                     1.00   0.29  0.00  0.00  0.47  0.24  0.00  0.00  0.61  0.00
  116                     1.00   0.29  0.00  0.00  0.47  0.24  0.00  0.00  0.62  0.00
  117                     1.00   0.29  0.00  0.00  0.01  0.70  0.00  0.00  0.05  0.00
  118                     1.00   0.29  0.00  0.00  0.04  0.66  0.00  0.00  0.62  0.00
  119                     1.00   0.29  0.00  0.00  0.71  0.00  0.00  0.00  0.64  0.00
  120                     1.00   0.29  0.00  0.00  0.71  0.00  0.00  0.00  0.63  0.00
  121                     1.00   0.29  0.00  0.00  0.71  0.00  0.00  0.00  0.62  0.00
  122                     1.00   0.29  0.00  0.00  0.71  0.00  0.00  0.00  0.64  0.00
  123                     1.00   0.29  0.00  0.00  0.71  0.00  0.00  0.00  0.65  0.00
  124                     1.00   0.29  0.00  0.00  0.71  0.00  0.00  0.00  0.65  0.00
  125                     1.00   0.29  0.00  0.00  0.71  0.00  0.00  0.00  0.00  0.00
  126                     1.00   0.29  0.00  0.00  0.71  0.00  0.00  0.00  0.63  0.00
  127                     1.00   0.29  0.00  0.00  0.71  0.00  0.00  0.00  0.61  0.00
  128                     1.00   0.29  0.00  0.00  0.71  0.00  0.00  0.00  0.62  0.00
  129                     1.00   0.29  0.00  0.00  0.71  0.00  0.00  0.00  0.62  0.00
  130                     1.00   0.29  0.00  0.00  0.71  0.00  0.00  0.00  0.59  0.00
  131                     1.00   0.29  0.10  0.00  0.61  0.00  0.00  0.00  0.67  0.00
  132                     1.00   0.00  0.00  0.00  0.07  0.93  0.00  0.00  0.93  0.00
  133                     1.00   0.00  0.00  0.00  0.14  0.86  0.00  0.00  0.00  0.00
  134                     1.00   0.00  0.00  0.00  0.04  0.96  0.00  0.00  0.00  0.00
  135                     1.00   0.00  0.00  0.00  0.01  0.98  0.00  0.00  0.04  0.00
  136                     1.00   0.00  0.00  0.00  0.01  0.99  0.00  0.00  0.51  0.00
  137                     1.00   0.00  0.00  0.00  1.00  0.00  0.00  0.00  0.00  0.00
  138                     1.00   0.00  0.00  0.00  1.00  0.00  0.00  0.00  0.00  0.00
  139                     1.00   0.00  0.00  0.00  1.00  0.00  0.00  0.00  0.00  0.00
  140                     1.00   0.00  0.00  0.00  1.00  0.00  0.00  0.00  0.00  0.00
  141                     1.00   0.00  0.00  0.00  1.00  0.00  0.00  0.00  0.00  0.00
  142                     1.00   0.00  0.00  0.00  1.00  0.00  0.00  0.00  0.00  0.00
  143                     1.00   0.00  0.00  0.00  1.00  0.00  0.00  0.00  0.00  0.00
  144                     1.00   0.00  0.00  0.00  1.00  0.00  0.00  0.00  0.00  0.00
  145                     1.00   0.00  0.00  0.00  1.00  0.00  0.00  0.00  0.00  0.00
  146                     1.00   0.00  0.00  0.00  1.00  0.00  0.00  0.00  0.00  0.00
  147                     1.00   0.00  0.00  0.00  1.00  0.00  0.00  0.00  0.00  0.00
  148                     1.00   0.00  0.00  0.00  1.00  0.00  0.00  0.00  0.00  0.00
  149                     1.00   0.00  0.00  0.00  1.00  0.00  0.00  0.00  0.00  0.00
  150                     1.00   0.00  0.00  0.00  1.00  0.00  0.00  0.00  0.55  0.00
  151                     1.00   0.00  0.00  0.00  1.00  0.00  0.00  0.00  0.07  0.00
  152                     1.00   0.00  0.00  0.00  1.00  0.00  0.00  0.00  0.00  0.00
  153                     1.00   0.00  0.00  0.00  1.00  0.00  0.00  0.00  0.00  0.00
  154                     1.00   0.00  0.00  0.00  1.00  0.00  0.00  0.00  0.00  0.00
  155                     1.00   0.00  0.00  0.00  1.00  0.00  0.00  0.00  0.00  0.00
  156                     1.00   0.00  0.00  0.00  1.00  0.00  0.00  0.00  0.00  0.00
  157                     1.00   0.00  0.00  0.00  1.00  0.00  0.00  0.00  0.00  0.00
  158                     1.00   0.00  0.00  0.00  1.00  0.00  0.00  0.00  0.00  0.00
  159                     1.00   0.00  0.00  0.00  1.00  0.00  0.00  0.00  0.00  0.00
  160                     1.00   0.00  0.00  0.00  1.00  0.00  0.00  0.00  0.00  0.00
  161                     1.00   0.00  0.02  0.00  0.98  0.00  0.00  0.00  0.17  0.00
  162                     1.00   0.02  0.27  0.00  0.71  0.00  0.00  0.00  0.38  0.00
  163                     1.00   0.29  0.00  0.00  0.71  0.00  0.00  0.00  0.47  0.00
  164                     1.00   0.29  0.00  0.00  0.71  0.00  0.00  0.00  0.53  0.00
  165                     1.00   0.29  0.00  0.00  0.71  0.00  0.00  0.00  0.52  0.00
  166                     1.00   0.29  0.00  0.00  0.71  0.00  0.00  0.00  0.60  0.00
  167                     1.00   0.29  0.00  0.00  0.71  0.00  0.00  0.00  0.61  0.00
  168                     1.00   0.29  0.00  0.00  0.71  0.00  0.00  0.00  0.58  0.00
  169                     1.00   0.29  0.00  0.00  0.71  0.00  0.00  0.00  0.64  0.00
  170                     1.00   0.29  0.00  0.00  0.71  0.00  0.00  0.00  0.59  0.00
  171                     1.00   0.29  0.00  0.00  0.71  0.00  0.00  0.00  0.62  0.00
  172                     1.00   0.00  0.02  0.00  0.98  0.00  0.00  0.00  0.00  0.00
  173                     1.00   0.02  0.27  0.00  0.71  0.00  0.00  0.00  0.66  0.00
  174                     1.00   0.29  0.10  0.00  0.61  0.00  0.00  0.00  0.68  0.00
  47b                     1.00   0.00  0.00  0.00  0.10  0.90  0.00  0.00  0.00  0.00
  48                      1.00   0.00  0.00  0.00  1.00  0.00  0.00  0.00  0.00  0.00
  56                      1.00   0.01  0.00  0.00  0.99  0.00  0.00  0.00  0.00  0.00
  80-a                    1.00   0.00  0.00  0.00  0.00  1.00  0.00  0.00  0.83  0.00
  81-a                    1.00   0.00  0.00  0.00  0.00  1.00  0.00  0.00  0.98  0.00
  82-a                    1.00   0.00  0.00  0.00  0.00  1.00  0.00  0.00  0.30  0.00
  83-a                    1.00   0.00  0.00  0.00  0.00  0.99  0.00  0.00  0.60  0.00
  84-a                    1.00   0.00  0.00  0.00  0.00  0.99  0.00  0.00  0.59  0.00
  85-a                    1.00   0.00  0.00  0.00  0.11  0.89  0.00  0.00  0.00  0.00
  86-a                    1.00   0.00  0.00  0.00  0.02  0.98  0.00  0.00  0.38  0.00
  87-a                    1.00   0.00  0.00  0.00  0.01  0.98  0.00  0.00  0.52  0.00
  88-a                    1.00   0.00  0.00  0.00  0.01  0.99  0.00  0.00  0.57  0.00
  89-a                    1.00   0.00  0.00  0.00  0.00  0.99  0.00  0.00  0.53  0.00
  90-a                    1.00   0.00  0.00  0.00  0.00  0.99  0.00  0.00  0.59  0.00
  69                      1.00   0.01  0.00  0.00  0.01  0.98  0.00  0.00  0.00  0.00
  
  
  *************************
  Conduit Surcharge Summary
  *************************
  
  ----------------------------------------------------------------------------
                                                           Hours        Hours 
                         --------- Hours Full --------   Above Full   Capacity
  Conduit                Both Ends  Upstream  Dnstream   Normal Flow   Limited
  ----------------------------------------------------------------------------
  2                           0.01      0.01      0.01      0.18         0.01
  3                           0.01      0.01      0.01      0.15         0.01
  4                           0.01      0.01      0.01      0.17         0.01
  5                           0.01      0.01      0.01      0.18         0.01
  6                           0.01      0.01      0.01      0.18         0.01
  7                           0.01      0.05      0.01      0.18         0.01
  8                           0.05      0.14      0.05      0.18         0.05
  9                           0.14      0.16      0.14      0.18         0.13
  10                          0.16      0.17      0.16      0.18         0.15
  11                          0.17      0.18      0.17      0.18         0.16
  12                          0.18      0.18      0.18      0.18         0.16
  13                          0.18      0.19      0.18      0.19         0.16
  14                          0.18      0.19      0.19      0.19         0.16
  15                          0.19      0.19      0.19      0.18         0.15
  16                          0.19      0.19      0.19      0.18         0.16
  17                          0.19      0.19      0.19      0.18         0.15
  18                          0.18      0.18      0.19      0.01         0.01
  19                          0.16      0.16      0.18      0.01         0.01
  20                          0.15      0.15      0.16      0.01         0.01
  21                          0.13      0.13      0.15      0.01         0.01
  22                          0.11      0.12      0.13      0.01         0.01
  23                          0.07      0.07      0.12      0.01         0.01
  24                          0.07      0.07      0.07      0.01         0.01
  25                          0.07      0.07      0.07      0.01         0.01
  26                          0.06      0.06      0.07      0.06         0.06
  27                          0.05      0.05      0.06      0.01         0.02
  28                          0.04      0.04      0.05      0.01         0.01
  29                          0.03      0.03      0.04      0.01         0.01
  30                          0.03      0.03      0.03      0.01         0.01
  31                          0.02      0.03      0.03      0.02         0.01
  32                          0.02      0.04      0.03      0.04         0.01
  33                          0.04      0.04      0.04      0.03         0.01
  34                          0.04      0.06      0.04      0.04         0.01
  35                          0.06      0.10      0.06      0.07         0.01
  36                          0.01      0.01      0.10      0.01         0.01
  47a                         0.01      0.01      0.10      0.01         0.01
  49                          1.22      1.22      1.31      0.01         0.01
  50                          0.66      1.08      0.66      2.95         0.66
  52                          0.01      0.56      0.01      0.57         0.01
  53                          0.01      0.01      0.41      0.01         0.01
  54                          0.54      0.54      0.59      0.01         0.01
  55                          0.01      0.01      0.46      0.01         0.01
  57                          0.31      0.31      0.52      0.01         0.01
  58                          0.01      0.01      0.01      0.48         0.01
  59                          0.01      0.01      0.01      0.44         0.01
  60                          0.01      0.01      0.01      0.57         0.01
  61                          0.01      0.01      0.01      3.87         0.01
  63                          0.01      0.01      0.01      0.98         0.01
  65                          0.08      0.49      0.08      0.38         0.08
  67                          0.01      0.01      0.01      0.51         0.01
  70                          0.01      0.01      0.01      0.45         0.01
  71                          0.01      0.01      0.04      0.01         0.01
  72                          0.01      0.01      0.01      3.63         0.01
  73                          0.01      0.01      0.01      4.70         0.01
  74                          0.01      0.09      0.01      5.45         0.01
  75                          0.01      0.01      0.24      0.01         0.01
  78                          0.01      0.01      0.01      3.03         0.01
  80                          0.01      0.01      0.01      0.04         0.01
  81                          0.01      0.03      0.01      0.14         0.01
  82                          0.03      0.07      0.03      0.14         0.03
  83                          0.07      0.09      0.07      0.14         0.07
  84                          0.09      0.10      0.09      0.14         0.09
  85                          0.08      0.08      0.10      0.01         0.01
  86                          0.06      0.06      0.08      0.01         0.01
  87                          0.05      0.05      0.06      0.01         0.01
  88                          0.01      0.01      0.05      0.01         0.01
  89                          0.01      0.01      0.01      0.01         0.01
  90                          0.01      0.01      0.01      0.01         0.01
  98                          0.01      0.01      0.01      0.24         0.01
  99                          0.01      0.01      0.01      0.24         0.01
  100                         0.01      0.01      0.01      0.24         0.01
  101                         0.01      0.01      0.01      0.24         0.01
  102                         0.01      0.01      0.01      0.09         0.01
  103                         0.01      0.01      0.01      0.09         0.01
  104                         0.01      0.01      0.01      0.09         0.01
  105                         0.01      0.01      0.01      0.10         0.01
  106                         0.01      0.01      0.01      0.09         0.01
  107                         0.01      0.01      0.01      0.09         0.01
  108                         0.01      0.01      0.01      0.09         0.01
  109                         0.01      0.01      0.01      0.05         0.01
  110                         0.01      0.01      0.01      0.05         0.01
  111                         0.01      0.01      0.01      0.05         0.01
  112                         0.01      0.01      0.01      0.05         0.01
  113                         0.13      0.13      0.26      0.09         0.09
  114                         0.12      0.12      0.13      0.09         0.08
  115                         0.11      0.11      0.12      0.09         0.09
  116                         0.10      0.10      0.11      0.09         0.08
  117                         0.10      1.02      0.10      1.25         0.07
  118                         1.02      1.10      1.02      1.24         0.98
  119                         0.95      0.95      1.10      0.01         0.01
  120                         0.74      0.74      0.95      0.01         0.01
  121                         0.13      0.13      0.74      0.11         0.11
  122                         0.12      0.12      0.13      0.10         0.10
  123                         0.11      0.11      0.12      0.01         0.01
  124                         0.70      0.70      1.10      0.01         0.01
  125                         0.62      0.62      0.70      0.47         0.48
  126                         0.60      0.60      0.62      0.47         0.48
  127                         0.59      0.59      0.60      0.55         0.54
  128                         0.58      0.58      0.59      0.55         0.54
  129                         0.01      0.01      0.58      0.01         0.01
  130                         0.01      0.01      0.01      0.01         0.01
  138                         0.01      0.01      0.01     32.18         0.01
  139                         0.01      0.01      0.01     32.19         0.01
  140                         0.01      0.01      0.01     32.19         0.01
  141                         0.01      0.01      0.01     32.20         0.01
  142                         0.01      0.01      0.01     32.20         0.01
  143                         0.01      0.01      0.01     32.21         0.01
  144                         0.01      6.53      0.01     32.21         0.01
  145                         6.53      7.09      6.53     32.20         6.51
  146                         7.09      7.84      7.09     32.22         7.09
  147                         7.84      8.57      7.84     32.23         7.84
  148                         8.57      9.29      8.57     32.23         8.57
  149                         9.29      9.47      9.29     32.14         9.26
  150                         2.40      2.40      9.47      0.25         0.25
  151                         0.70      0.70      2.40      0.01         0.01
  152                        15.70     47.70     15.70     13.75        11.52
  153                        47.70     47.71     47.70     13.72        13.72
  154                        47.71     47.71     47.71     13.69        13.69
  155                        47.71     47.72     47.71      5.31         5.30
  156                        47.72     47.72     47.72      1.45         1.44
  157                        47.72     47.73     47.72      0.01         0.01
  158                         0.01      0.01     47.73      0.01         0.01
  159                         0.01      0.01      0.01      0.01         0.01
  160                         0.01      0.01      0.10      0.01         0.01
  47b                         0.01      0.91      0.01      0.01         0.01
  48                          0.01      0.69      0.01      0.01         0.01
  56                          0.01      0.50      0.01      5.79         0.01
  81-a                        0.01      0.01      0.01      0.06         0.01
  82-a                        0.01      0.04      0.01      0.10         0.01
  83-a                        0.03      0.06      0.03      0.10         0.03
  84-a                        0.06      0.08      0.06      0.10         0.06
  85-a                        0.05      0.05      0.08      0.01         0.01
  86-a                        0.04      0.04      0.05      0.01         0.01
  87-a                        0.01      0.01      0.04      0.01         0.01
  88-a                        0.01      0.01      0.01      0.01         0.01
  89-a                        0.01      0.01      0.01      0.01         0.01
  69                          0.19      0.41      0.19      0.02         0.19
  

  Analysis begun on:  Mon Nov 15 15:18:53 2021
  Analysis ended on:  Mon Nov 15 15:19:08 2021
  Total elapsed time: 00:00:15