
  EPA STORM WATER MANAGEMENT MODEL - VERSION 5.1 (Build 5.1.013)
  --------------------------------------------------------------

  WARNING 09: time series interval greater than recording interval for Rain Gage 1
  WARNING 01: wet weather time step reduced to recording interval for Rain Gage 1
  WARNING 04: minimum elevation drop used for Conduit 58
  WARNING 04: minimum elevation drop used for Conduit 59
  WARNING 04: minimum elevation drop used for Conduit 60
  WARNING 04: minimum elevation drop used for Conduit 61
  WARNING 04: minimum elevation drop used for Conduit 63
  WARNING 04: minimum elevation drop used for Conduit 67
  WARNING 04: minimum elevation drop used for Conduit 72
  WARNING 04: minimum elevation drop used for Conduit 73
  WARNING 04: minimum elevation drop used for Conduit 74
  WARNING 04: minimum elevation drop used for Conduit 78
  WARNING 04: minimum elevation drop used for Conduit 56
  WARNING 02: maximum depth increased for Node 22
  WARNING 02: maximum depth increased for Node 23
  WARNING 02: maximum depth increased for Node 24
  WARNING 02: maximum depth increased for Node 25
  WARNING 02: maximum depth increased for Node 32
  WARNING 02: maximum depth increased for Node 33
  WARNING 02: maximum depth increased for Node 34
  WARNING 02: maximum depth increased for Node 35
  WARNING 02: maximum depth increased for Node 36
  WARNING 02: maximum depth increased for Node 37
  WARNING 02: maximum depth increased for Node 40
  WARNING 02: maximum depth increased for Node 41
  WARNING 02: maximum depth increased for Node 42
  WARNING 02: maximum depth increased for Node 43
  WARNING 02: maximum depth increased for Node 44
  WARNING 02: maximum depth increased for Node 46
  WARNING 02: maximum depth increased for Node 47
  WARNING 02: maximum depth increased for Node 50
  WARNING 02: maximum depth increased for Node 51
  WARNING 02: maximum depth increased for Node 52
  WARNING 02: maximum depth increased for Node 53
  WARNING 02: maximum depth increased for Node 55
  WARNING 02: maximum depth increased for Node 56a
  WARNING 02: maximum depth increased for Node 57
  WARNING 02: maximum depth increased for Node 58
  WARNING 02: maximum depth increased for Node 59
  WARNING 02: maximum depth increased for Node 60
  WARNING 02: maximum depth increased for Node 61
  WARNING 02: maximum depth increased for Node 62
  WARNING 02: maximum depth increased for Node 63
  WARNING 02: maximum depth increased for Node 64
  WARNING 02: maximum depth increased for Node 65
  WARNING 02: maximum depth increased for Node 66
  WARNING 02: maximum depth increased for Node 67
  WARNING 02: maximum depth increased for Node 68
  WARNING 02: maximum depth increased for Node 69
  WARNING 02: maximum depth increased for Node 70
  WARNING 02: maximum depth increased for Node 71
  WARNING 02: maximum depth increased for Node 72
  WARNING 02: maximum depth increased for Node 73
  WARNING 02: maximum depth increased for Node 74
  WARNING 02: maximum depth increased for Node 75
  WARNING 02: maximum depth increased for Node 76
  WARNING 02: maximum depth increased for Node 77
  WARNING 02: maximum depth increased for Node 78
  WARNING 02: maximum depth increased for Node 79
  WARNING 02: maximum depth increased for Node 92
  WARNING 02: maximum depth increased for Node 134
  WARNING 02: maximum depth increased for Node 135
  WARNING 02: maximum depth increased for Node 136
  WARNING 02: maximum depth increased for Node 138
  WARNING 02: maximum depth increased for Node 139
  WARNING 02: maximum depth increased for Node 140
  WARNING 02: maximum depth increased for Node 141
  WARNING 02: maximum depth increased for Node 142
  WARNING 02: maximum depth increased for Node 143
  WARNING 02: maximum depth increased for Node 158
  WARNING 02: maximum depth increased for Node 163
  WARNING 02: maximum depth increased for Node 164
  WARNING 02: maximum depth increased for Node 165
  WARNING 02: maximum depth increased for Node 166
  WARNING 02: maximum depth increased for Node 167
  WARNING 02: maximum depth increased for Node 168
  WARNING 02: maximum depth increased for Node 170
  WARNING 02: maximum depth increased for Node 171
  WARNING 02: maximum depth increased for Node 173
  WARNING 02: maximum depth increased for Node 174
  
  *********************************************************
  NOTE: The summary statistics displayed in this report are
  based on results found at every computational time step,  
  not just on results from each reporting time step.
  *********************************************************
  
  ****************
  Analysis Options
  ****************
  Flow Units ............... CMS
  Process Models:
    Rainfall/Runoff ........ YES
    RDII ................... NO
    Snowmelt ............... NO
    Groundwater ............ NO
    Flow Routing ........... YES
    Ponding Allowed ........ NO
    Water Quality .......... NO
  Infiltration Method ...... CURVE_NUMBER
  Flow Routing Method ...... DYNWAVE
  Surcharge Method ......... EXTRAN
  Starting Date ............ 09/30/2015 00:00:00
  Ending Date .............. 10/10/2015 23:45:00
  Antecedent Dry Days ...... 0.0
  Report Time Step ......... 00:15:00
  Wet Time Step ............ 00:05:00
  Dry Time Step ............ 00:15:00
  Routing Time Step ........ 30.00 sec
  Variable Time Step ....... YES
  Maximum Trials ........... 8
  Number of Threads ........ 1
  Head Tolerance ........... 0.001500 m
  
  
  **************************        Volume         Depth
  Runoff Quantity Continuity     hectare-m            mm
  **************************     ---------       -------
  Total Precipitation ......       382.972       356.362
  Evaporation Loss .........         0.000         0.000
  Infiltration Loss ........        50.783        47.255
  Surface Runoff ...........       328.787       305.942
  Final Storage ............         6.488         6.038
  Continuity Error (%) .....        -0.806
  
  
  **************************        Volume        Volume
  Flow Routing Continuity        hectare-m      10^6 ltr
  **************************     ---------     ---------
  Dry Weather Inflow .......       289.565      2895.681
  Wet Weather Inflow .......       328.767      3287.701
  Groundwater Inflow .......         0.000         0.000
  RDII Inflow ..............         0.000         0.000
  External Inflow ..........         0.000         0.000
  External Outflow .........       438.905      4389.094
  Flooding Loss ............       178.980      1789.814
  Evaporation Loss .........         0.000         0.000
  Exfiltration Loss ........         0.000         0.000
  Initial Stored Volume ....         0.059         0.586
  Final Stored Volume ......         0.956         9.560
  Continuity Error (%) .....        -0.073
  
  
  ***************************
  Time-Step Critical Elements
  ***************************
  Link 47b (99.99%)
  
  
  ********************************
  Highest Flow Instability Indexes
  ********************************
  Link 53 (45)
  Link 54 (40)
  Link 52 (36)
  Link 51 (25)
  Link 63 (1)
  
  
  *************************
  Routing Time Step Summary
  *************************
  Minimum Time Step           :     0.50 sec
  Average Time Step           :     1.12 sec
  Maximum Time Step           :     4.07 sec
  Percent in Steady State     :    -0.00
  Average Iterations per Step :     2.04
  Percent Not Converging      :     0.27
  
  
  ***************************
  Subcatchment Runoff Summary
  ***************************
  
  ------------------------------------------------------------------------------------------------------------------------------
                            Total      Total      Total      Total     Imperv       Perv      Total       Total     Peak  Runoff
                           Precip      Runon       Evap      Infil     Runoff     Runoff     Runoff      Runoff   Runoff   Coeff
  Subcatchment                 mm         mm         mm         mm         mm         mm         mm    10^6 ltr      CMS
  ------------------------------------------------------------------------------------------------------------------------------
  ws-1                     356.36       0.00       0.00      39.34      76.88     241.82     318.70        1.43     0.17   0.894
  ws-2                     356.36       0.00       0.00      39.79      71.49     247.92     319.42        0.80     0.14   0.896
  ws-3                     356.36       0.00       0.00      40.00     166.24     148.86     315.11       30.50     2.95   0.884
  ws-7                     356.36       0.00       0.00      33.00     125.10     203.98     329.08        0.79     0.13   0.923
  ws-8                     356.36       0.00       0.00      27.19     170.75     166.57     337.32        3.07     0.45   0.947
  ws-9                     356.36       0.00       0.00      27.14     168.64     169.74     338.38        0.98     0.20   0.950
  ws-10                    356.36       0.00       0.00      11.58     290.05      73.64     363.69        1.02     0.24   1.021
  ws-11                    356.36       0.00       0.00      12.73     275.17      78.17     353.33        5.26     0.95   0.992
  ws-12                    356.36       0.00       0.00      15.46     261.21      96.29     357.50        1.29     0.28   1.003
  ws-13                    356.36       0.00       0.00      23.34     249.91      88.19     338.10       12.00     1.78   0.949
  ws-14                    356.36       0.00       0.00      16.11     255.18     101.35     356.53        0.75     0.17   1.000
  ws-15                    356.36       0.00       0.00      19.54     229.26     121.96     351.22        0.74     0.16   0.986
  ws-16                    356.36       0.00       0.00      14.68     267.07      91.85     358.93        1.08     0.24   1.007
  ws-17                    356.36       0.00       0.00      42.97     190.92     112.78     303.71      212.84     8.69   0.852
  ws-18                    356.36       0.00       0.00      13.49     272.61      86.79     359.40        0.61     0.15   1.009
  ws-19                    356.36       0.00       0.00      50.43     185.28     122.99     308.27       12.21     1.55   0.865
  ws-20                    356.36       0.00       0.00      49.39     186.44     119.18     305.62       42.30     4.15   0.858
  ws-21                    356.36       0.00       0.00      68.92     122.67     169.87     292.53        1.76     0.23   0.821
  ws-22                    356.36       0.00       0.00      40.88     208.59     103.59     312.19       64.22     4.75   0.876
  ws-23                    356.36       0.00       0.00      60.49     151.74     148.09     299.83        2.16     0.28   0.841
  ws-24                    356.36       0.00       0.00      52.58     182.73     131.65     314.38        0.53     0.11   0.882
  ws-25                    356.36       0.00       0.00      48.72     190.69     118.66     309.36       10.18     1.25   0.868
  ws-26                    356.36       0.00       0.00      48.56     182.21     124.29     306.50       31.94     3.15   0.860
  ws-27                    356.36       0.00       0.00      67.31     128.54     166.38     294.92        1.39     0.20   0.828
  ws-28                    356.36       0.00       0.00      62.75     145.39     154.55     299.94        3.00     0.42   0.842
  ws-29                    356.36       0.00       0.00      80.38      79.87     197.35     277.22        3.74     0.36   0.778
  ws-30                    356.36       0.00       0.00      67.02     128.46     164.01     292.47        4.45     0.52   0.821
  ws-31                    356.36       0.00       0.00      86.86      55.23     213.70     268.93        0.94     0.08   0.755
  ws-32                    356.36       0.00       0.00      89.04      88.24     176.88     265.12       26.41     2.23   0.744
  ws-35                    356.36       0.00       0.00      98.12      13.21     240.74     253.95        2.26     0.11   0.713
  ws-37                    356.36       0.00       0.00      29.42     222.61     111.30     333.91        3.21     0.50   0.937
  ws-38                    356.36       0.00       0.00      23.90     194.97     146.42     341.39        3.38     0.53   0.958
  ws-40                    356.36       0.00       0.00      12.88     280.42      80.04     360.46        0.68     0.15   1.012
  ws-41                    356.36       0.00       0.00       9.35     294.58      57.22     351.80       10.59     1.53   0.987
  ws-42                    356.36       0.00       0.00      15.08     255.84      92.27     348.11       10.23     1.63   0.977
  ws-43                    356.36       0.00       0.00      22.34     207.72     137.27     345.00        2.59     0.44   0.968
  ws-45                    356.36       0.00       0.00      35.24     183.70     139.75     323.45       49.17     5.92   0.908
  ws-46                    356.36       0.00       0.00      12.32     268.24      73.94     342.18       59.06     3.51   0.960
  ws-47                    356.36       0.00       0.00      20.26     224.27     125.65     349.91        2.31     0.46   0.982
  ws-48                    356.36       0.00       0.00       9.43     307.12      60.09     367.20        0.99     0.23   1.030
  ws-49                    356.36       0.00       0.00       7.50     328.51      27.47     355.98        3.95     0.59   0.999
  ws-50                    356.36       0.00       0.00       0.74     367.62       4.94     372.55        2.35     0.53   1.045
  ws-52                    356.36       0.00       0.00      19.38     230.73     119.53     350.26        5.85     1.11   0.983
  ws-53                    356.36       0.00       0.00      12.54     281.21      77.55     358.76       27.98     5.79   1.007
  ws-54                    356.36       0.00       0.00      17.79     234.19     116.76     350.95        1.44     0.36   0.985
  ws-55                    356.36       0.00       0.00      37.59     178.83     140.62     319.45       37.06     4.07   0.896
  ws-57                    356.36       0.00       0.00      45.71      28.66     278.77     307.43        1.17     0.06   0.863
  ws-58                    356.36       0.00       0.00      33.97     117.32     205.82     323.14        8.27     0.77   0.907
  ws-60                    356.36       0.00       0.00      23.75     197.41     146.05     343.47        1.58     0.27   0.964
  ws-61                    356.36       0.00       0.00      22.58     205.15     138.52     343.66        2.68     0.44   0.964
  ws-62                    356.36       0.00       0.00      24.36     192.73     150.59     343.32        1.10     0.20   0.963
  ws-63                    356.36       0.00       0.00      18.69     228.83     114.03     342.87       12.51     1.80   0.962
  ws-64                    356.36       0.00       0.00      40.79     191.03     124.45     315.48       30.32     3.21   0.885
  ws-65                    356.36       0.00       0.00      21.97     209.29     134.71     343.99        3.78     0.62   0.965
  ws-66                    356.36       0.00       0.00      23.20     200.51     142.25     342.76       51.62     8.33   0.962
  ws-69                    356.36       0.00       0.00      42.95     174.48     136.91     311.39       34.88     3.21   0.874
  ws-70                    356.36       0.00       0.00      22.53     202.92     136.92     339.84        5.00     0.70   0.954
  ws-71                    356.36       0.00       0.00      26.49     191.50     137.85     329.35      165.11    17.63   0.924
  ws-73                    356.36       0.00       0.00      19.18     230.64     117.80     348.44        2.44     0.43   0.978
  ws-74                    356.36       0.00       0.00      43.75      43.99     261.64     305.64        8.28     0.34   0.858
  ws-75                    356.36       0.00       0.00      51.01      32.26     269.96     302.22        2.02     0.11   0.848
  ws-77                    356.36       0.00       0.00      51.65      27.18     275.55     302.73        0.70     0.06   0.849
  ws-78                    356.36       0.00       0.00      67.23     126.44     163.59     290.03        7.86     0.84   0.814
  ws-79                    356.36       0.00       0.00      60.26     119.14     180.83     299.97        2.82     0.27   0.842
  ws-80                    356.36       0.00       0.00      30.36     143.90     189.41     333.32        0.20     0.04   0.935
  ws-81                    356.36       0.00       0.00      63.73     138.58     155.02     293.60        4.17     0.46   0.824
  ws-83                    356.36       0.00       0.00      54.85     169.30     133.39     302.70        4.39     0.52   0.849
  ws-84                    356.36       0.00       0.00      27.47     266.54      60.18     326.72      436.86    20.17   0.917
  ws-87                    356.36       0.00       0.00       1.27     361.93       8.27     370.20        0.74     0.16   1.039
  ws-88                    356.36       0.00       0.00      15.38     251.05      93.76     344.81       14.31     1.92   0.968
  ws-89                    356.36       0.00       0.00       1.17     367.67       7.78     375.45        0.75     0.17   1.054
  ws-90                    356.36       0.00       0.00       1.22     370.02       8.18     378.20        0.11     0.03   1.061
  ws-91                    356.36       0.00       0.00       0.84     372.94       5.62     378.56        0.15     0.04   1.062
  ws-92                    356.36       0.00       0.00       3.95     347.96      25.36     373.32        0.45     0.11   1.048
  ws-93                    356.36       0.00       0.00       4.90     342.49      31.79     374.27        0.22     0.05   1.050
  ws-94                    356.36       0.00       0.00       4.72     328.62      29.08     357.70        5.58     0.88   1.004
  ws-95                    356.36       0.00       0.00       4.84     339.75      30.63     370.38        0.93     0.21   1.039
  ws-96                    356.36       0.00       0.00       1.68     366.02      11.25     377.27        0.26     0.06   1.059
  ws-97                    356.36       0.00       0.00       7.40     317.87      45.99     363.86        2.87     0.62   1.021
  ws-98                    356.36       0.00       0.00      10.27     298.54      63.73     362.28        2.75     0.59   1.017
  ws-101                   356.36       0.00       0.00      15.32     259.62      94.31     353.93        1.91     0.37   0.993
  ws-102                   356.36       0.00       0.00      14.43     267.58      89.16     356.74        1.71     0.35   1.001
  ws-103                   356.36       0.00       0.00      18.62     235.96     114.72     350.68        0.25     0.05   0.984
  ws-105                   356.36       0.00       0.00      14.24     269.00      88.02     357.02        1.18     0.24   1.002
  ws-106                   356.36       0.00       0.00       3.67     348.11      23.34     371.46        0.82     0.19   1.042
  ws-107                   356.36       0.00       0.00       5.00     339.66      31.73     371.38        0.93     0.22   1.042
  ws-108                   356.36       0.00       0.00      11.85     276.42      72.38     348.80       12.52     1.74   0.979
  ws-112                   356.36       0.00       0.00      18.43     236.38     113.29     349.66        2.97     0.54   0.981
  ws-114                   356.36       0.00       0.00      33.86     177.67     154.76     332.43        0.17     0.04   0.933
  ws-115                   356.36       0.00       0.00      23.68     239.58     108.21     347.79        0.21     0.05   0.976
  ws-116                   356.36       0.00       0.00      21.89     219.04     114.57     333.62       76.53     6.91   0.936
  ws-118                   356.36       0.00       0.00      26.69     171.68     167.36     339.04        0.14     0.03   0.951
  ws-119                   356.36       0.00       0.00      12.22     279.85      75.16     355.01        2.70     0.51   0.996
  ws-120                   356.36       0.00       0.00      17.89     242.54     111.15     353.69        0.71     0.15   0.993
  ws-121                   356.36       0.00       0.00      14.65     267.24      91.75     358.98        0.93     0.21   1.007
  ws-122                   356.36       0.00       0.00      13.71     269.38      84.25     353.63        3.75     0.70   0.992
  ws-123                   356.36       0.00       0.00      13.50     261.27      81.66     342.93      101.17     8.97   0.962
  ws-124                   356.36       0.00       0.00      27.69     167.19     169.84     337.03        2.53     0.37   0.946
  ws-127                   356.36       0.00       0.00      41.83      57.62     257.07     314.69        0.38     0.04   0.883
  ws-128                   356.36       0.00       0.00      10.64     279.32      63.36     342.68      234.05    11.00   0.962
  ws-130                   356.36       0.00       0.00      30.64     143.70     189.30     333.00        0.33     0.06   0.934
  ws-131                   356.36       0.00       0.00      22.78     199.66     145.20     344.85        0.07     0.02   0.968
  ws-132                   356.36       0.00       0.00      18.22     227.13     109.55     336.68       64.71     5.25   0.945
  ws-136                   356.36       0.00       0.00      43.20     142.13     169.27     311.39       24.44     2.26   0.874
  ws-137                   356.36       0.00       0.00      49.87     138.57     175.11     313.68        0.72     0.09   0.880
  ws-138                   356.36       0.00       0.00      68.18      54.33     233.20     287.53        2.36     0.16   0.807
  ws-139                   356.36       0.00       0.00      68.01      49.06     240.14     289.21        0.81     0.08   0.812
  ws-141                   356.36       0.00       0.00      69.55      42.96     243.75     286.71        0.46     0.04   0.805
  ws-142                   356.36       0.00       0.00      67.68      49.69     240.42     290.10        0.44     0.04   0.814
  ws-143                   356.36       0.00       0.00      65.91      63.99     226.98     290.97        2.01     0.15   0.817
  ws-144                   356.36       0.00       0.00      58.78     193.92     107.45     301.37        5.70     0.70   0.846
  ws-145                   356.36       0.00       0.00      28.34     237.70     105.74     343.43        0.34     0.06   0.964
  ws-146                   356.36       0.00       0.00      55.26     113.42     192.68     306.10        0.80     0.08   0.859
  ws-148                   356.36       0.00       0.00      37.67     182.14     134.39     316.54      257.76    22.92   0.888
  ws-149                   356.36       0.00       0.00      77.03       9.63     267.12     276.75        0.08     0.01   0.777
  ws-150                   356.36       0.00       0.00      80.19     147.75     121.22     268.97      119.77     6.72   0.755
  ws-154                   356.36       0.00       0.00      46.92     154.88     161.28     316.16        2.02     0.24   0.887
  ws-155                   356.36       0.00       0.00      33.89     119.55     208.12     327.67        0.52     0.07   0.919
  ws-156                   356.36       0.00       0.00      26.14     178.21     160.04     338.25        1.76     0.26   0.949
  ws-157                   356.36       0.00       0.00      33.93     146.17     179.16     325.34        5.11     0.58   0.913
  ws-159                   356.36       0.00       0.00      90.60     145.22     114.38     259.60      193.07    12.26   0.728
  ws-161                   356.36       0.00       0.00      89.69     161.77      95.83     257.60      502.77    18.29   0.723
  ws-162                   356.36       0.00       0.00      93.31      31.28     228.53     259.80        0.65     0.04   0.729
  ws-163                   356.36       0.00       0.00      83.53      67.89     205.41     273.30        1.09     0.10   0.767
  ws-165                   356.36       0.00       0.00      36.77     236.97      90.57     327.54        7.21     1.23   0.919
  ws-166                   356.36       0.00       0.00      10.09     333.65      25.40     359.05        3.45     0.72   1.008
  ws-167                   356.36       0.00       0.00      23.19     292.67      60.01     352.68        0.42     0.10   0.990
  ws-168                   356.36       0.00       0.00      29.23     260.54      71.85     332.39        5.78     0.89   0.933
  ws-169                   356.36       0.00       0.00      19.09     308.40      48.82     357.22        0.54     0.13   1.002
  ws-170                   356.36       0.00       0.00      29.19     266.26      72.30     338.56        2.00     0.39   0.950
  ws-171                   356.36       0.00       0.00      32.10     246.75      78.06     324.81       37.22     3.85   0.911
  ws-172                   356.36       0.00       0.00      24.43     187.80     148.86     336.67        5.18     0.69   0.945
  ws-173                   356.36       0.00       0.00      17.47     231.75     104.50     336.25       74.08     4.98   0.944
  ws-174                   356.36       0.00       0.00      10.39     299.45      64.95     364.40        0.33     0.07   1.023
  
  
  ******************
  Node Depth Summary
  ******************
  
  ---------------------------------------------------------------------------------
                                 Average  Maximum  Maximum  Time of Max    Reported
                                   Depth    Depth      HGL   Occurrence   Max Depth
  Node                 Type       Meters   Meters   Meters  days hr:min      Meters
  ---------------------------------------------------------------------------------
  1                    JUNCTION     0.25     1.29    35.99     4  03:21        1.20
  2                    JUNCTION     0.43     2.05    37.06     4  03:19        1.98
  3                    JUNCTION     0.46     2.19    37.51     4  03:19        2.06
  4                    JUNCTION     0.46     2.16    37.81     4  03:06        2.12
  5                    JUNCTION     0.46     2.28    38.24     4  03:06        2.15
  6                    JUNCTION     0.46     2.63    38.91    10  08:25        2.17
  7                    JUNCTION     0.47     3.18    39.76    10  08:25        2.19
  8                    JUNCTION     0.47     3.32    40.22    10  08:25        2.21
  9                    JUNCTION     0.47     3.13    40.35    10  08:25        2.23
  10                   JUNCTION     0.47     2.82    40.35    10  08:25        2.26
  11                   JUNCTION     0.47     2.50    40.35     4  03:19        2.28
  12                   JUNCTION     0.47     3.33    41.49    10  08:24        2.30
  13                   JUNCTION     0.47     3.64    42.11    10  08:24        2.32
  14                   JUNCTION     0.47     2.98    41.78    10  08:24        2.33
  15                   JUNCTION     0.47     2.65    41.76     4  03:19        2.35
  16                   JUNCTION     0.47     2.68    42.10     4  03:19        2.37
  17                   JUNCTION     0.47     2.70    42.44     4  03:19        2.38
  18                   JUNCTION     0.46     2.71    42.77    10  08:24        2.34
  19                   JUNCTION     0.46     3.01    43.38    10  08:24        2.29
  20                   JUNCTION     0.45     2.73    43.42    10  08:24        2.25
  21                   JUNCTION     0.45     2.39    43.42     4  03:06        2.19
  22                   JUNCTION     0.45     2.13    43.49     4  03:06        2.13
  23                   JUNCTION     0.45     2.13    43.83     4  03:21        2.08
  24                   JUNCTION     0.44     2.13    44.15     4  03:21        2.06
  25                   JUNCTION     0.44     2.13    44.27     4  03:21        2.05
  26                   JUNCTION     0.44     2.18    44.50     4  03:21        2.04
  27                   JUNCTION     0.44     2.24    44.89     4  03:21        2.02
  28                   JUNCTION     0.44     2.27    45.23     4  03:21        2.01
  29                   JUNCTION     0.44     2.24    45.65     4  03:21        2.00
  30                   JUNCTION     0.44     2.21    45.98     4  03:21        1.99
  31                   JUNCTION     0.44     2.15    46.24     4  03:21        1.98
  32                   JUNCTION     0.44     2.13    46.54     4  03:20        1.97
  33                   JUNCTION     0.44     2.13    46.86     4  03:21        1.96
  34                   JUNCTION     0.44     2.13    47.17     4  03:21        1.95
  35                   JUNCTION     0.44     2.13    47.52     4  03:20        1.94
  36                   JUNCTION     0.41     1.95    47.65     4  03:21        1.73
  37                   JUNCTION     0.40     1.80    47.86     4  03:21        1.55
  38                   JUNCTION     0.40     1.72    48.11     4  03:21        1.47
  39                   JUNCTION     0.39     1.86    48.31     4  03:21        1.60
  40                   JUNCTION     0.49     1.61    48.55     4  03:21        1.41
  41                   JUNCTION     0.36     1.18    49.70    10  08:22        1.02
  42                   JUNCTION     0.43     1.72    50.42    10  08:22        1.46
  43                   JUNCTION     0.38     1.07    50.86    10  08:22        0.99
  44                   JUNCTION     0.32     0.93    51.82    10  08:21        0.85
  45                   JUNCTION     0.57     2.03    53.08    10  08:21        1.81
  46                   JUNCTION     0.96     2.34    53.24    10  08:22        2.17
  47                   JUNCTION     0.56     1.90    53.23    10  08:22        1.72
  48                   JUNCTION     0.51     1.93    54.22    10  08:21        1.87
  49                   JUNCTION     0.47     1.83    54.19     4  02:36        1.83
  50                   JUNCTION     0.87     2.96    55.39     4  03:20        2.95
  51                   JUNCTION     0.30     0.98    55.18     4  03:18        0.98
  52                   JUNCTION     0.45     2.44    56.74     4  03:11        2.44
  53                   JUNCTION     0.61     2.24    56.82     4  03:20        2.19
  54                   JUNCTION     0.32     2.04    56.91     4  03:20        1.99
  55                   JUNCTION     0.15     1.85    57.08     4  03:20        1.76
  56a                  JUNCTION     0.27     1.68    57.18     4  03:22        1.64
  57                   JUNCTION     0.23     2.16    58.24     4  03:22        1.96
  58                   JUNCTION     0.42     2.41    58.49     4  03:29        2.11
  59                   JUNCTION     0.54     2.64    58.72     4  03:29        2.40
  60                   JUNCTION     0.78     2.91    58.99     4  03:28        2.78
  61                   JUNCTION     0.81     2.99    59.07     4  03:28        2.86
  62                   JUNCTION     0.11     1.41    59.32    10  08:27        1.08
  63                   JUNCTION     0.24     2.37    60.28     4  03:27        1.68
  64                   JUNCTION     0.16     2.00    60.16     4  03:28        1.33
  65                   JUNCTION     0.26     2.95    61.38     4  03:28        2.67
  66                   JUNCTION     0.39     2.81    61.33     4  03:28        2.65
  67                   JUNCTION     0.51     2.91    61.43     4  03:27        2.72
  68                   JUNCTION     0.23     1.88    61.40     4  03:28        1.73
  69                   JUNCTION     0.22     2.34    62.14     4  03:23        2.09
  70                   JUNCTION     0.66     2.63    62.45     4  03:24        2.42
  71                   JUNCTION     0.43     2.37    62.42     4  03:24        2.16
  72                   JUNCTION     0.60     2.49    62.54     4  03:24        2.28
  73                   JUNCTION     0.79     2.71    62.75    10  08:25        2.46
  74                   JUNCTION     0.81     2.80    62.84    10  08:25        2.52
  75                   JUNCTION     0.36     2.22    62.87    10  08:24        1.91
  76                   JUNCTION     0.33     2.08    63.04    10  08:23        1.77
  77                   JUNCTION     0.12     1.36    62.93    10  08:24        1.12
  78                   JUNCTION     0.50     2.03    63.60    10  08:22        1.58
  79                   JUNCTION     0.23     1.45    63.63    10  08:22        0.91
  80                   JUNCTION     0.17     1.47    64.09    10  08:22        0.82
  81                   JUNCTION     0.20     1.64    64.46    10  08:22        1.01
  82                   JUNCTION     0.20     1.75    64.79    10  08:22        1.01
  83                   JUNCTION     0.20     1.81    65.05    10  08:22        1.00
  84                   JUNCTION     0.20     1.83    65.29    10  08:22        0.99
  85                   JUNCTION     0.18     1.66    65.33    10  08:22        0.77
  86                   JUNCTION     0.18     1.53    65.41    10  08:21        0.70
  87                   JUNCTION     0.18     1.44    65.53    10  08:21        0.65
  88                   JUNCTION     0.17     1.37    65.67    10  08:21        0.62
  89                   JUNCTION     0.17     1.31    65.81    10  08:21        0.61
  90                   JUNCTION     0.17     1.28    66.06    10  08:21        0.60
  91                   JUNCTION     0.10     1.41    66.40    10  08:21        0.70
  92                   JUNCTION     0.10     1.39    66.60    10  08:21        0.71
  93                   JUNCTION     0.10     1.32    66.74    10  08:20        0.71
  94                   JUNCTION     0.10     1.26    66.88    10  08:20        0.70
  95                   JUNCTION     0.10     1.19    67.03    10  08:20        0.69
  96                   JUNCTION     0.10     1.13    67.18    10  08:20        0.68
  97                   JUNCTION     0.10     1.10    67.35    10  08:20        0.67
  98                   JUNCTION     0.13     1.23    67.51    10  08:22        0.87
  99                   JUNCTION     0.14     1.33    67.65    10  08:20        0.92
  100                  JUNCTION     0.15     1.43    67.78    10  08:21        0.96
  101                  JUNCTION     0.16     1.51    67.89    10  08:21        1.04
  102                  JUNCTION     0.14     1.53    67.97    10  08:21        1.03
  103                  JUNCTION     0.14     1.54    68.04    10  08:21        0.99
  104                  JUNCTION     0.14     1.55    68.11    10  08:21        0.98
  105                  JUNCTION     0.14     1.56    68.18    10  08:21        0.98
  106                  JUNCTION     0.14     1.55    68.23    10  08:21        0.97
  107                  JUNCTION     0.14     1.55    68.29    10  08:21        0.96
  108                  JUNCTION     0.14     1.54    68.34    10  08:21        0.96
  109                  JUNCTION     0.14     1.52    68.38    10  08:21        0.95
  110                  JUNCTION     0.14     1.49    68.41    10  08:21        0.94
  111                  JUNCTION     0.14     1.47    68.45    10  08:21        0.93
  112                  JUNCTION     0.14     1.45    68.50    10  08:21        0.92
  113                  JUNCTION     0.10     1.48    69.13    10  08:20        0.75
  114                  JUNCTION     0.09     1.74    70.09    10  08:19        0.72
  115                  JUNCTION     0.09     1.98    70.93    10  08:19        0.72
  116                  JUNCTION     0.09     1.95    71.76    10  08:19        0.72
  117                  JUNCTION     0.19     2.91    73.33    10  08:17        1.63
  118                  JUNCTION     0.21     3.43    74.44    10  08:17        2.40
  119                  JUNCTION     0.10     1.79    73.40     4  02:33        1.79
  120                  JUNCTION     0.08     1.21    73.42     4  02:34        1.21
  121                  JUNCTION     0.06     1.32    74.14    10  08:18        0.70
  122                  JUNCTION     0.05     1.50    74.95    10  08:18        0.53
  123                  JUNCTION     0.05     1.30    75.44    10  08:18        0.51
  124                  JUNCTION     0.08     2.15    74.67    10  08:18        1.21
  125                  JUNCTION     0.12     1.91    74.74    10  08:18        1.22
  126                  JUNCTION     0.11     1.22    74.35     4  02:49        1.22
  127                  JUNCTION     0.11     1.27    74.70    10  08:18        1.25
  128                  JUNCTION     0.11     1.29    75.04     4  03:02        1.29
  129                  JUNCTION     0.03     1.05    75.16    10  08:20        0.94
  130                  JUNCTION     0.01     0.57    75.17    10  08:19        0.45
  131                  JUNCTION     0.00     0.07    75.17    10  08:20        0.01
  132                  JUNCTION     0.23     1.12    66.06    10  08:21        0.55
  133                  JUNCTION     0.22     0.98    66.06    10  08:21        0.41
  134                  JUNCTION     0.21     0.81    66.05    10  08:22        0.36
  135                  JUNCTION     0.21     0.63    66.02    10  08:22        0.34
  136                  JUNCTION     0.21     0.56    66.10    10  08:20        0.34
  137                  JUNCTION     0.31     0.58    66.14    10  08:20        0.42
  138                  JUNCTION     0.57     0.76    66.34     4  03:20        0.72
  139                  JUNCTION     0.65     0.84    66.43     4  03:20        0.81
  140                  JUNCTION     0.70     0.89    66.50     4  03:20        0.87
  141                  JUNCTION     0.74     0.94    66.56     4  03:20        0.92
  142                  JUNCTION     0.78     0.97    66.62     4  03:20        0.97
  143                  JUNCTION     0.81     1.00    66.66     2  21:33        1.00
  144                  JUNCTION     0.83     1.06    66.73    10  08:20        1.03
  145                  JUNCTION     0.85     1.06    66.75     2  21:31        1.06
  146                  JUNCTION     0.89     1.26    66.97    10  08:20        1.25
  147                  JUNCTION     0.93     1.44    67.16     3  23:35        1.44
  148                  JUNCTION     0.98     1.78    67.52     4  00:34        1.78
  149                  JUNCTION     1.00     2.23    67.99     4  03:03        2.06
  150                  JUNCTION     0.45     3.23    69.61    10  08:19        1.73
  151                  JUNCTION     0.55     3.18    70.00    10  08:15        1.39
  152                  JUNCTION     0.56     2.63    70.05    10  08:15        1.30
  153                  JUNCTION     0.56     2.17    70.18    10  08:15        1.22
  154                  JUNCTION     0.55     1.79    70.41     4  03:19        1.14
  155                  JUNCTION     0.54     1.40    70.62    10  08:15        1.00
  156                  JUNCTION     0.53     0.92    70.74     4  02:34        0.85
  157                  JUNCTION     0.52     0.66    71.08     4  00:33        0.66
  158                  JUNCTION     0.50     0.50    71.52     0  00:00        0.50
  160                  JUNCTION     0.28     2.03    47.58     4  03:21        1.81
  161                  JUNCTION     0.20     1.98    47.62     4  03:21        1.74
  162                  JUNCTION     0.15     1.90    47.63     4  03:21        1.64
  163                  JUNCTION     0.12     1.82    47.64     4  03:21        1.55
  164                  JUNCTION     0.10     1.74    47.66     4  03:21        1.46
  165                  JUNCTION     0.09     1.66    47.66     4  03:21        1.38
  166                  JUNCTION     0.08     1.58    47.67     4  03:21        1.28
  167                  JUNCTION     0.06     1.41    47.69     4  03:22        1.11
  168                  JUNCTION     0.05     1.33    47.70     4  03:22        1.02
  169                  JUNCTION     0.05     1.24    47.70     4  03:22        0.93
  170                  JUNCTION     0.04     1.15    47.70     4  03:22        0.84
  171                  JUNCTION     0.03     0.99    47.70     4  03:22        0.67
  172                  JUNCTION     0.14     1.29    48.58    10  08:23        1.06
  173                  JUNCTION     0.03     0.60    48.61    10  08:24        0.34
  174                  JUNCTION     0.00     0.02    49.38    10  08:20        0.00
  47a                  JUNCTION     0.24     1.26    53.47    10  08:22        1.19
  47b                  JUNCTION     0.41     1.67    53.91    10  08:21        1.61
  56b                  JUNCTION     0.38     2.36    57.86     4  03:10        2.36
  159                  JUNCTION     0.50     0.50    72.01     0  00:00        0.50
  0                    OUTFALL      2.00     2.00    34.39     0  00:00        2.00
  
  
  *******************
  Node Inflow Summary
  *******************
  
  -------------------------------------------------------------------------------------------------
                                  Maximum  Maximum                  Lateral       Total        Flow
                                  Lateral    Total  Time of Max      Inflow      Inflow     Balance
                                   Inflow   Inflow   Occurrence      Volume      Volume       Error
  Node                 Type           CMS      CMS  days hr:min    10^6 ltr    10^6 ltr     Percent
  -------------------------------------------------------------------------------------------------
  1                    JUNCTION     0.168   60.344     4  03:19        1.43    4.39e+03      -0.005
  2                    JUNCTION     0.141   53.067     4  03:19       0.798    4.39e+03       0.011
  3                    JUNCTION     2.948   52.753     4  03:19        30.5    4.39e+03       0.003
  4                    JUNCTION     0.000   51.201     4  03:20           0    4.36e+03       0.003
  5                    JUNCTION     0.000   51.184     4  03:20           0    4.36e+03       0.003
  6                    JUNCTION     0.000   51.175     4  03:20           0    4.36e+03       0.002
  7                    JUNCTION     0.128   51.177     4  03:20        0.79    4.36e+03       0.002
  8                    JUNCTION     0.449   51.309    10  08:25        3.07    4.36e+03       0.002
  9                    JUNCTION     0.203   50.842     4  03:20       0.981    4.35e+03       0.002
  10                   JUNCTION     0.240   52.163    10  08:24        1.02    4.35e+03       0.002
  11                   JUNCTION     0.954   51.791    10  08:24        5.26    4.35e+03       0.002
  12                   JUNCTION     0.277   52.077    10  08:24        1.29    4.35e+03       0.002
  13                   JUNCTION     1.779   51.636    10  08:24          12    4.35e+03       0.002
  14                   JUNCTION     0.170   51.032    10  08:24       0.749    4.33e+03       0.002
  15                   JUNCTION     0.157   50.854    10  08:24       0.738    4.33e+03       0.002
  16                   JUNCTION     0.239   50.681    10  08:24        1.08    4.33e+03       0.002
  17                   JUNCTION     8.686   50.696    10  08:24         213    4.33e+03       0.002
  18                   JUNCTION     0.148   44.514     4  03:14       0.611    4.12e+03       0.002
  19                   JUNCTION     1.548   45.927    10  08:24        12.2    4.12e+03       0.002
  20                   JUNCTION     4.153   46.634    10  08:24        42.3    4.11e+03       0.002
  21                   JUNCTION     0.232   45.925    10  08:24        1.76    4.06e+03       0.002
  22                   JUNCTION     4.746   50.260     4  03:22        64.2    4.08e+03       0.003
  23                   JUNCTION     0.279   47.530     4  03:23        2.16    4.02e+03       0.003
  24                   JUNCTION     0.107   47.462     4  03:23       0.534    4.01e+03       0.002
  25                   JUNCTION     1.248   50.762     4  03:21        10.2    4.01e+03       0.001
  26                   JUNCTION     3.146   49.857     4  03:21        31.9       4e+03       0.002
  27                   JUNCTION     0.200   48.005     4  03:21        1.39    3.97e+03       0.003
  28                   JUNCTION     0.424   47.575     4  03:23           3    3.97e+03       0.003
  29                   JUNCTION     0.360   47.626     4  03:21        3.74    3.97e+03       0.004
  30                   JUNCTION     0.523   47.578     4  03:21        4.45    3.97e+03       0.003
  31                   JUNCTION     0.082   47.441     4  03:21       0.941    3.96e+03       0.003
  32                   JUNCTION     2.233   48.465     4  03:22        26.4    3.96e+03       0.003
  33                   JUNCTION     0.000   47.440     4  03:25           0    3.93e+03       0.003
  34                   JUNCTION     0.000   47.440     4  03:25           0    3.93e+03       0.003
  35                   JUNCTION     0.107   53.078     4  03:22        2.26    3.94e+03       0.005
  36                   JUNCTION     0.000   32.708     4  03:22           0    3.37e+03       0.004
  37                   JUNCTION     0.505   32.536     4  03:22        3.21    3.37e+03       0.004
  38                   JUNCTION     0.528   32.258     4  03:21        3.38    3.37e+03       0.002
  39                   JUNCTION     0.000   32.122     4  03:21           0    3.37e+03       0.002
  40                   JUNCTION     0.148   32.319     4  03:21       0.685    3.37e+03       0.006
  41                   JUNCTION     1.531   29.755    10  08:22        10.6    3.29e+03       0.003
  42                   JUNCTION     1.631   28.589    10  08:22        10.2    3.28e+03       0.004
  43                   JUNCTION     0.443   27.421    10  08:21        2.59    3.27e+03       0.003
  44                   JUNCTION     0.000   26.860    10  08:22           0    3.26e+03       0.002
  45                   JUNCTION     5.917   27.102    10  08:21        49.2    3.26e+03       0.001
  46                   JUNCTION     3.508   23.515    10  08:21        59.1    3.21e+03       0.004
  47                   JUNCTION     0.462   20.800    10  08:21        2.31    3.15e+03       0.002
  48                   JUNCTION     0.235   20.704    10  08:21       0.991    3.15e+03      -0.001
  49                   JUNCTION     0.591   38.248     4  03:20        3.95    3.37e+03       0.000
  50                   JUNCTION     0.527   37.913     4  03:20        2.35    3.36e+03       0.004
  51                   JUNCTION     0.000   37.630     4  03:11           0    3.36e+03       0.001
  52                   JUNCTION     1.109   43.737     4  03:20        5.85    3.37e+03      -0.014
  53                   JUNCTION     7.094   42.929     4  03:20    1.26e+03    3.36e+03       0.017
  54                   JUNCTION     0.364   38.688     4  03:20        1.44     2.1e+03       0.003
  55                   JUNCTION     4.072   38.749     4  03:22        37.1     2.1e+03       0.002
  56a                  JUNCTION     0.000   37.587     4  03:10           0    2.06e+03       0.000
  57                   JUNCTION     0.062   55.210     4  03:29        1.17    2.07e+03       0.004
  58                   JUNCTION     0.770   56.036     4  03:29        8.27    2.07e+03       0.007
  59                   JUNCTION     0.000   55.855     4  03:28           0    2.06e+03       0.005
  60                   JUNCTION     0.269   57.423    10  08:27        1.58    2.06e+03       0.007
  61                   JUNCTION     0.440   58.001    10  08:27        2.68    2.06e+03      -0.238
  62                   JUNCTION     0.202   80.795     4  03:27         1.1    2.06e+03       0.048
  63                   JUNCTION     1.796   54.205     4  03:28        12.5    2.05e+03       0.005
  64                   JUNCTION     3.206   44.129     4  03:28        30.3    2.04e+03       0.001
  65                   JUNCTION     0.619   47.450    10  08:27        3.78    2.01e+03       0.001
  66                   JUNCTION     8.328   45.652    10  08:25        51.6    2.01e+03       0.004
  67                   JUNCTION     0.000   43.253     4  03:24           0    1.96e+03       0.005
  68                   JUNCTION     0.000   43.562    10  08:24           0    1.96e+03       0.004
  69                   JUNCTION     3.213   44.623    10  08:24        34.9    1.96e+03       0.001
  70                   JUNCTION     0.704   44.709    10  08:24           5    1.92e+03       0.005
  71                   JUNCTION    17.629   45.887    10  08:24         165    1.92e+03       0.004
  72                   JUNCTION     0.000   40.749    10  08:24           0    1.75e+03       0.006
  73                   JUNCTION     0.433   42.480    10  08:23        2.44    1.75e+03       0.008
  74                   JUNCTION     0.343   45.163    10  08:23        8.28    1.75e+03       0.012
  75                   JUNCTION     0.106   47.136    10  08:23        2.02    1.74e+03       0.011
  76                   JUNCTION     0.000   50.059    10  08:23           0    1.74e+03       0.004
  77                   JUNCTION     0.060   49.077    10  08:22       0.696    1.74e+03       0.024
  78                   JUNCTION     0.843   49.699    10  08:22        7.86    1.74e+03      -0.020
  79                   JUNCTION     0.273   49.471    10  08:22        2.82    1.73e+03       0.002
  80                   JUNCTION     0.039   46.875    10  08:22         0.2    1.73e+03       0.001
  81                   JUNCTION     0.463   46.886    10  08:22        4.17    1.73e+03      -0.000
  82                   JUNCTION     0.000   45.704    10  08:22           0    1.72e+03       0.001
  83                   JUNCTION     0.516   46.103    10  08:22        4.39    1.72e+03       0.001
  84                   JUNCTION    20.168   45.741    10  08:22         437    1.72e+03       0.003
  85                   JUNCTION     0.000   31.570    10  08:21           0    1.28e+03       0.002
  86                   JUNCTION     0.000   31.067    10  08:21           0    1.28e+03       0.001
  87                   JUNCTION     0.162   30.415    10  08:21        0.74    1.28e+03       0.001
  88                   JUNCTION     1.923   29.532    10  08:21        14.3    1.28e+03       0.002
  89                   JUNCTION     0.175   27.567    10  08:21       0.751    1.27e+03       0.001
  90                   JUNCTION     0.027   26.981    10  08:21       0.113    1.27e+03       0.002
  91                   JUNCTION     0.036   16.739    10  08:21       0.151         390      -0.001
  92                   JUNCTION     0.105   16.747    10  08:21       0.448         390       0.001
  93                   JUNCTION     0.054   16.178    10  08:21       0.225         389       0.001
  94                   JUNCTION     0.885   16.057    10  08:21        5.58         389       0.001
  95                   JUNCTION     0.213   15.030    10  08:21       0.926         384      -0.000
  96                   JUNCTION     0.063   14.687    10  08:21       0.264         383      -0.003
  97                   JUNCTION     0.618   14.725    10  08:22        2.87         382       0.004
  98                   JUNCTION     0.594   13.939    10  08:21        2.75         380       0.007
  99                   JUNCTION     0.000   13.402    10  08:21           0         377       0.000
  100                  JUNCTION     0.000   13.265    10  08:21           0         377      -0.000
  101                  JUNCTION     0.369   13.151    10  08:21        1.91         377       0.005
  102                  JUNCTION     0.348   12.766    10  08:21        1.71         375       0.001
  103                  JUNCTION     0.046   12.408    10  08:21       0.245         373       0.001
  104                  JUNCTION     0.000   12.332    10  08:20           0         373       0.001
  105                  JUNCTION     0.241   12.436    10  08:20        1.18         373       0.001
  106                  JUNCTION     0.188   12.390    10  08:20       0.817         372       0.001
  107                  JUNCTION     0.216   12.331    10  08:20       0.928         371       0.001
  108                  JUNCTION     1.744   12.270    10  08:20        12.5         370       0.001
  109                  JUNCTION     0.000   10.764    10  08:20           0         358       0.002
  110                  JUNCTION     0.000   10.870    10  08:20           0         358       0.001
  111                  JUNCTION     0.000   11.049    10  08:20           0         358       0.001
  112                  JUNCTION     0.540   11.260    10  08:20        2.97         358       0.002
  113                  JUNCTION     0.000   10.716    10  08:20           0         355      -0.000
  114                  JUNCTION     0.036   10.715    10  08:20       0.166         355       0.001
  115                  JUNCTION     0.046   10.679    10  08:20       0.209         354       0.001
  116                  JUNCTION     6.912   10.634    10  08:20        76.5         354       0.003
  117                  JUNCTION     0.000    4.459     4  02:35           0         278      -0.001
  118                  JUNCTION     0.029    5.621    10  08:20       0.136         290      -0.001
  119                  JUNCTION     0.509    4.084    10  08:17         2.7          98      -0.008
  120                  JUNCTION     0.147    8.235    10  08:20       0.707         106      -0.006
  121                  JUNCTION     0.208    8.087    10  08:20       0.933         106       0.000
  122                  JUNCTION     0.699    7.880    10  08:20        3.75         105       0.001
  123                  JUNCTION     8.971    8.971    10  08:20         101         101       0.001
  124                  JUNCTION     0.375    5.593    10  08:20        2.53         226       0.000
  125                  JUNCTION     0.000    5.417     4  04:59           0         223       0.002
  126                  JUNCTION     0.000    5.609    10  08:20           0         225      -0.002
  127                  JUNCTION     0.040    5.796    10  08:18       0.378         225      -0.002
  128                  JUNCTION    10.998   11.282     4  03:20         234         236      -0.001
  129                  JUNCTION     0.000    1.984    10  08:18           0        3.02       0.001
  130                  JUNCTION     0.056    1.375    10  08:19       0.333        1.26       0.042
  131                  JUNCTION     0.016    0.130    10  08:20       0.069      0.0779       0.013
  132                  JUNCTION     5.247    8.451    10  08:20        64.7         877       0.002
  133                  JUNCTION     0.000    3.672    10  08:22           0         812       0.002
  134                  JUNCTION     0.000    3.512    10  08:20           0         812       0.002
  135                  JUNCTION     0.000    3.539    10  08:20           0         812       0.002
  136                  JUNCTION     2.255    3.558    10  08:20        24.4         813       0.003
  137                  JUNCTION     0.085    1.492     4  03:20       0.721         788       0.004
  138                  JUNCTION     0.162    1.426     4  03:20        2.36         787       0.004
  139                  JUNCTION     0.075    1.273     4  03:20        0.81         785       0.005
  140                  JUNCTION     0.000    1.297    10  08:04           0         784       0.006
  141                  JUNCTION     0.039    1.396    10  08:03       0.459         784       0.006
  142                  JUNCTION     0.042    1.509    10  08:03       0.435         784       0.007
  143                  JUNCTION     0.153    1.688    10  08:03        2.01         787       0.006
  144                  JUNCTION     0.696    1.747    10  08:03         5.7         785       0.006
  145                  JUNCTION     0.063    2.645    10  08:20       0.343         885       0.006
  146                  JUNCTION     0.080    2.582    10  08:20       0.796         885       0.006
  147                  JUNCTION     0.000    3.299     4  10:26           0         917       0.006
  148                  JUNCTION    22.920   26.858    10  08:20         258    1.04e+03       0.005
  149                  JUNCTION     0.006    7.151    10  08:20       0.083         784       0.007
  150                  JUNCTION     6.718    7.179    10  08:20         120         784       0.001
  151                  JUNCTION     0.000    0.885    10  08:15           0         664       0.002
  152                  JUNCTION     0.000    0.729    10  08:03           0         664       0.002
  153                  JUNCTION     0.000    0.730    10  08:03           0         664       0.002
  154                  JUNCTION     0.243    0.730    10  08:03        2.02         664       0.000
  155                  JUNCTION     0.069    0.712    10  08:15       0.524         662       0.000
  156                  JUNCTION     0.258    0.788    10  08:20        1.76         662       0.000
  157                  JUNCTION     0.577    1.179    10  08:20        5.11         664       0.000
  158                  JUNCTION     0.000    0.741     0  00:00           0         666       0.002
  160                  JUNCTION     0.000   20.579     4  03:23           0         561       0.009
  161                  JUNCTION    18.292   20.525     4  03:22         503         562       0.003
  162                  JUNCTION     0.037    4.928     4  03:23       0.649        59.4       0.005
  163                  JUNCTION     0.102    4.747     4  03:23        1.09        58.1       0.005
  164                  JUNCTION     0.000    4.567     4  03:23           0        56.7       0.004
  165                  JUNCTION     1.229    4.416     4  03:23        7.21        56.6       0.004
  166                  JUNCTION     0.723    3.883     4  03:23        3.45        49.4       0.007
  167                  JUNCTION     0.101    3.538    10  08:20       0.423          46       0.008
  168                  JUNCTION     0.888    4.093    10  08:20        5.78        45.5       0.005
  169                  JUNCTION     0.126    3.773    10  08:20       0.536        39.7       0.006
  170                  JUNCTION     0.388    4.132    10  08:20           2        39.2       0.008
  171                  JUNCTION     3.848    3.848    10  08:20        37.2        37.2       0.004
  172                  JUNCTION     0.687    5.501    10  08:20        5.18        79.6       0.044
  173                  JUNCTION     4.978    5.043    10  08:20        74.1        74.4       0.008
  174                  JUNCTION     0.074    0.074    10  08:20       0.328       0.328       0.001
  47a                  JUNCTION     0.000   20.753    10  08:21           0    3.15e+03       0.000
  47b                  JUNCTION     0.000   20.898    10  08:21           0    3.15e+03       0.000
  56b                  JUNCTION     0.000   60.325     4  03:29           0    2.07e+03      -0.004
  159                  JUNCTION    14.008   14.008    10  08:20    1.85e+03    1.85e+03       0.000
  0                    OUTFALL      0.000   54.831     4  04:52           0    4.39e+03       0.000
  
  
  **********************
  Node Surcharge Summary
  **********************
  
  Surcharging occurs when water rises above the top of the highest conduit.
  ---------------------------------------------------------------------
                                               Max. Height   Min. Depth
                                   Hours       Above Crown    Below Rim
  Node                 Type      Surcharged         Meters       Meters
  ---------------------------------------------------------------------
  3                    JUNCTION        0.01          0.057        0.209
  4                    JUNCTION        0.39          0.032        0.000
  5                    JUNCTION        1.82          0.148        2.111
  6                    JUNCTION        2.14          0.502        1.444
  7                    JUNCTION        2.24          1.046        0.586
  8                    JUNCTION        2.27          1.185        0.133
  9                    JUNCTION        2.29          1.005        0.000
  10                   JUNCTION        2.30          0.687        0.000
  11                   JUNCTION        2.31          0.372        0.000
  12                   JUNCTION        2.30          1.197        1.935
  13                   JUNCTION        2.30          1.507        1.311
  14                   JUNCTION        2.28          0.853        1.649
  15                   JUNCTION        2.28          0.524        1.664
  16                   JUNCTION        2.27          0.549        1.320
  17                   JUNCTION        2.27          0.570        0.984
  18                   JUNCTION        2.09          0.579        0.658
  19                   JUNCTION        1.97          0.877        0.039
  20                   JUNCTION        1.79          0.600        0.000
  21                   JUNCTION        1.44          0.256        0.000
  22                   JUNCTION        1.20          0.000        0.000
  23                   JUNCTION        0.12          0.000        0.000
  24                   JUNCTION        0.12          0.000        0.000
  25                   JUNCTION        0.11          0.000        0.000
  26                   JUNCTION        0.11          0.049        1.740
  27                   JUNCTION        0.10          0.109        1.354
  28                   JUNCTION        0.09          0.137        1.010
  29                   JUNCTION        0.08          0.108        0.587
  30                   JUNCTION        0.08          0.083        0.263
  31                   JUNCTION        0.08          0.021        0.000
  32                   JUNCTION        0.08          0.000        0.000
  33                   JUNCTION        0.07          0.000        0.000
  34                   JUNCTION        0.07          0.000        0.000
  35                   JUNCTION        0.07          0.000        0.000
  48                   JUNCTION        5.64          0.104        0.052
  49                   JUNCTION        5.36          0.014        0.000
  52                   JUNCTION        0.92          0.000        0.000
  54                   JUNCTION        1.38          0.182        0.122
  113                  JUNCTION        0.14          0.477        1.089
  114                  JUNCTION        0.08          0.744        3.883
  115                  JUNCTION        0.07          0.979        4.707
  116                  JUNCTION        0.06          0.950        4.678
  117                  JUNCTION        6.34          1.912        1.018
  118                  JUNCTION        7.05          2.426        0.137
  119                  JUNCTION        5.85          0.793        0.000
  120                  JUNCTION        5.25          0.215        0.000
  121                  JUNCTION        0.14          0.318        0.000
  122                  JUNCTION        0.07          0.501        0.453
  123                  JUNCTION        0.06          0.297        0.000
  124                  JUNCTION        4.32          1.150        0.837
  125                  JUNCTION        3.69          0.910        0.000
  126                  JUNCTION        3.46          0.224        0.000
  127                  JUNCTION        3.34          0.273        0.000
  128                  JUNCTION        3.21          0.285        0.000
  129                  JUNCTION        0.01          0.047        1.465
  143                  JUNCTION       21.21          0.000        0.000
  144                  JUNCTION       37.68          0.058        0.138
  145                  JUNCTION       42.49          0.062        0.000
  146                  JUNCTION       46.68          0.262        0.014
  147                  JUNCTION       50.76          0.439        0.000
  148                  JUNCTION       54.27          0.781        0.000
  149                  JUNCTION       55.08          1.234        0.000
  150                  JUNCTION       15.12          2.230        0.000
  151                  JUNCTION        7.48          2.184        0.316
  152                  JUNCTION      263.70          2.133        0.000
  153                  JUNCTION      263.71          1.666        0.000
  154                  JUNCTION      263.71          1.292        0.000
  155                  JUNCTION      263.72          0.903        0.207
  156                  JUNCTION      263.72          0.416        0.000
  157                  JUNCTION      263.73          0.157        0.000
  158                  JUNCTION      263.74          0.000        0.000
  56b                  JUNCTION        2.43          0.378        0.000
  159                  JUNCTION      263.75          0.000        0.000
  
  
  *********************
  Node Flooding Summary
  *********************
  
  Flooding refers to all water that overflows a node, whether it ponds or not.
  --------------------------------------------------------------------------
                                                             Total   Maximum
                                 Maximum   Time of Max       Flood    Ponded
                        Hours       Rate    Occurrence      Volume     Depth
  Node                 Flooded       CMS   days hr:min    10^6 ltr    Meters
  --------------------------------------------------------------------------
  4                       0.08     1.162      4  03:06       0.161     0.000
  9                       0.01     2.523     10  08:25       0.002     0.000
  10                      0.01     3.449     10  08:25       0.002     0.000
  11                      0.03     5.000     10  08:24       0.037     0.000
  20                      0.01     1.844     10  08:24       0.001     0.000
  21                      0.01     3.851     10  08:24       0.015     0.000
  22                      1.20    12.535      4  03:21      18.646     0.000
  23                      0.12     0.266      4  03:21       0.035     0.000
  24                      0.11     0.262      4  03:21       0.014     0.000
  25                      0.11     3.497      4  03:21       0.612     0.000
  31                      0.01     0.961      4  03:21       0.015     0.000
  32                      0.08     2.223      4  03:21       0.352     0.000
  33                      0.07     0.467      4  03:21       0.012     0.000
  34                      0.07     0.350      4  03:21       0.009     0.000
  35                      0.07     5.641      4  03:22       1.016     0.000
  49                      5.27    18.746      4  03:20     215.250     0.000
  52                      0.92     6.107      4  03:20       6.962     0.000
  119                     4.77     3.800     10  08:20      34.003     0.000
  120                     4.45     6.834     10  08:20      23.231     0.000
  121                     0.01     0.101     10  08:18       0.000     0.000
  123                     0.05     1.790     10  08:20       0.157     0.000
  125                     0.01     0.572     10  08:18       0.000     0.000
  126                     2.33     1.202     10  08:18       1.552     0.000
  127                     0.01     0.528     10  08:18       0.001     0.000
  128                     1.91     5.706      4  03:20      10.059     0.000
  143                    20.97     0.495     10  08:20       3.666     0.000
  145                    34.68     1.810     10  08:20     105.678     0.000
  147                    13.90     0.797     10  08:20      32.545     0.000
  148                     9.70    23.557     10  08:20     123.118     0.000
  149                     0.81     3.212     10  08:20       1.933     0.000
  150                     0.01     0.041     10  08:20       0.000     0.000
  152                     0.01     0.067     10  08:15       0.000     0.000
  153                     0.01     0.031     10  08:15       0.000     0.000
  154                     0.06     0.183     10  08:20       0.016     0.000
  156                     1.62     0.457     10  08:20       0.536     0.000
  157                     7.65     0.650     10  08:20       3.214     0.000
  158                   263.74     0.099      4  01:51       7.315     0.000
  56b                     0.62    23.530      4  03:29      11.298     0.000
  159                   263.75    13.306     10  08:20    1188.351     0.000
  
  
  ***********************
  Outfall Loading Summary
  ***********************
  
  -----------------------------------------------------------
                         Flow       Avg       Max       Total
                         Freq      Flow      Flow      Volume
  Outfall Node           Pcnt       CMS       CMS    10^6 ltr
  -----------------------------------------------------------
  0                     99.79     5.877    54.831    4389.074
  -----------------------------------------------------------
  System                99.79     5.877    54.831    4389.074
  
  
  ********************
  Link Flow Summary
  ********************
  
  -----------------------------------------------------------------------------
                                 Maximum  Time of Max   Maximum    Max/    Max/
                                  |Flow|   Occurrence   |Veloc|    Full    Full
  Link                 Type          CMS  days hr:min     m/sec    Flow   Depth
  -----------------------------------------------------------------------------
  1                    CONDUIT    54.831     4  04:52      4.89    0.43    0.77
  2                    CONDUIT    60.228     4  03:19      5.35    1.27    0.76
  3                    CONDUIT    52.997     4  03:19      3.97    1.12    0.98
  4                    CONDUIT    50.967     4  03:19      3.56    1.07    1.00
  5                    CONDUIT    51.201     4  03:20      3.46    1.08    1.00
  6                    CONDUIT    51.184     4  03:20      3.48    1.08    1.00
  7                    CONDUIT    51.175     4  03:20      3.46    1.08    1.00
  8                    CONDUIT    51.099     4  03:20      3.45    1.08    1.00
  9                    CONDUIT    51.226    10  08:25      3.45    1.08    1.00
  10                   CONDUIT    50.792    10  08:25      3.41    1.07    1.00
  11                   CONDUIT    52.147    10  08:24      3.51    1.10    1.00
  12                   CONDUIT    51.568    10  08:24      3.46    1.09    1.00
  13                   CONDUIT    52.034    10  08:24      3.49    1.10    1.00
  14                   CONDUIT    51.074    10  08:24      3.43    1.08    1.00
  15                   CONDUIT    51.006    10  08:24      3.42    1.08    1.00
  16                   CONDUIT    50.826    10  08:24      3.41    1.07    1.00
  17                   CONDUIT    50.640    10  08:24      3.40    1.07    1.00
  18                   CONDUIT    44.538     4  03:14      2.99    0.94    1.00
  19                   CONDUIT    44.512     4  03:14      2.99    0.94    1.00
  20                   CONDUIT    45.394    10  08:24      3.06    0.96    1.00
  21                   CONDUIT    44.798    10  08:24      3.03    0.94    1.00
  22                   CONDUIT    45.863    10  08:24      3.10    0.97    1.00
  23                   CONDUIT    47.440     4  03:28      3.18    1.00    1.00
  24                   CONDUIT    47.440     4  03:27      3.18    1.00    1.00
  25                   CONDUIT    47.440     4  03:27      3.18    1.00    1.00
  26                   CONDUIT    50.164     4  03:21      3.36    1.06    1.00
  27                   CONDUIT    48.243     4  03:21      3.24    1.02    1.00
  28                   CONDUIT    47.913     4  03:21      3.21    1.01    1.00
  29                   CONDUIT    47.431     4  03:23      3.18    1.00    1.00
  30                   CONDUIT    47.411     4  03:21      3.18    1.00    1.00
  31                   CONDUIT    47.295     4  03:21      3.17    1.00    1.00
  32                   CONDUIT    47.387     4  03:21      3.18    1.00    1.00
  33                   CONDUIT    47.440     4  03:25      3.18    1.00    1.00
  34                   CONDUIT    47.440     4  03:25      3.18    1.00    1.00
  35                   CONDUIT    47.440     4  03:25      3.18    1.00    1.00
  36                   CONDUIT    32.806     4  03:22      2.36    0.69    0.96
  37                   CONDUIT    32.708     4  03:22      2.56    0.69    0.88
  38                   CONDUIT    32.324     4  03:22      2.68    0.68    0.83
  39                   CONDUIT    32.019     4  03:21      1.99    0.43    0.84
  40                   CHANNEL    32.122     4  03:21      2.52    0.55    0.81
  41                   CHANNEL    29.859    10  08:23      4.13    0.07    0.32
  42                   CONDUIT    28.796    10  08:22      3.30    0.72    0.59
  43                   CHANNEL    27.533    10  08:22      2.80    0.08    0.41
  44                   CHANNEL    27.123    10  08:21      2.86    0.07    0.30
  45                   CONDUIT    26.860    10  08:22      5.01    0.29    0.47
  46                   CHANNEL    22.992     4  03:20      2.05    0.49    0.79
  47                   CHANNEL    20.407     4  07:52      1.85    0.08    0.69
  47a                  CONDUIT    20.439    10  08:21      2.98    0.23    0.84
  49                   CHANNEL    20.515    10  08:21      2.37    0.59    1.00
  50                   CHANNEL    37.899     4  03:20      4.83    4.19    1.00
  51                   CHANNEL    37.630     4  03:18      2.12    0.15    0.65
  52                   CONDUIT    37.630     4  03:11      5.55    1.31    0.77
  53                   CHANNEL    43.119     4  03:20      3.25    0.58    0.96
  54                   CHANNEL    38.710     4  03:20      3.20    0.55    1.00
  55                   CONDUIT    38.515     4  03:20      2.00    0.35    1.00
  56a                  CHANNEL    37.764     4  03:10      4.26    0.04    0.25
  57                   CHANNEL    60.325     4  03:29      2.86    0.68    1.00
  58                   CHANNEL    55.178     4  03:29      3.00    1.86    0.29
  59                   CHANNEL    55.868     4  03:29      2.80    1.66    0.28
  60                   CHANNEL    55.855     4  03:28      2.81    2.67    0.35
  61                   CHANNEL    57.387    10  08:27      2.34   10.53    0.74
  62                   CHANNEL    57.938    10  08:27      3.96    0.05    0.35
  63                   CHANNEL    80.778     4  03:27      5.55    5.47    0.40
  64                   CHANNEL    53.925     4  03:28      4.17    0.20    0.70
  65                   CONDUIT    43.431     4  03:28      6.45    1.14    1.00
  66                   CHANNEL    47.364    10  08:27      2.37    0.31    0.67
  67                   CHANNEL    44.204    10  08:25      2.23    4.38    0.62
  68                   CHANNEL    43.253     4  03:24      2.32    0.07    0.43
  70                   CHANNEL    43.284    10  08:24      3.03    1.49    0.68
  71                   CHANNEL    44.517    10  08:24      2.33    0.26    0.82
  72                   CHANNEL    38.743    10  08:24      1.68    8.30    0.72
  73                   CHANNEL    40.749    10  08:24      2.08   10.58    0.71
  74                   CHANNEL    42.327    10  08:23      1.62   13.80    0.90
  75                   CHANNEL    45.014    10  08:23      1.75    0.33    0.89
  76                   CHANNEL    47.074    10  08:23      2.13    0.16    0.46
  77                   CHANNEL    50.059    10  08:23      1.86    0.06    0.42
  78                   CHANNEL    49.035    10  08:22      4.46    8.56    0.42
  79                   CHANNEL    49.224    10  08:22      2.73    0.02    0.21
  80                   CONDUIT    27.754    10  08:22      5.72    0.90    0.77
  81                   CONDUIT    26.680    10  08:22      5.13    1.25    0.85
  82                   CONDUIT    25.363    10  08:22      4.56    1.19    0.90
  83                   CONDUIT    24.895    10  08:22      4.39    1.17    0.96
  84                   CONDUIT    24.830    10  08:22      4.36    1.17    0.99
  85                   CONDUIT    17.498    10  08:22      3.10    0.82    0.94
  86                   CONDUIT    17.819    10  08:21      3.32    0.84    0.85
  87                   CONDUIT    17.553    10  08:21      3.46    0.82    0.79
  88                   CONDUIT    17.140    10  08:21      3.58    0.80    0.75
  89                   CONDUIT    15.862    10  08:21      3.58    0.74    0.72
  90                   CONDUIT    15.499    10  08:21      3.70    0.73    0.67
  91                   CONDUIT    19.165    10  08:21      4.26    0.90    0.69
  92                   CONDUIT    16.714    10  08:21      4.12    0.78    0.75
  93                   CONDUIT    16.672    10  08:21      4.09    0.78    0.73
  94                   CONDUIT    16.140    10  08:21      4.06    0.76    0.69
  95                   CONDUIT    15.386    10  08:21      3.94    0.72    0.66
  96                   CONDUIT    14.891    10  08:21      3.96    0.70    0.63
  97                   CONDUIT    14.648    10  08:21      3.97    0.69    0.60
  98                   CONDUIT    14.372    10  08:22      3.64    1.78    0.63
  99                   CONDUIT    13.542    10  08:21      3.17    1.68    0.70
  100                  CONDUIT    13.402    10  08:21      2.90    1.66    0.75
  101                  CONDUIT    13.265    10  08:21      2.72    1.65    0.80
  102                  CONDUIT    12.892    10  08:21      2.58    1.13    0.83
  103                  CONDUIT    12.536    10  08:22      2.49    1.10    0.84
  104                  CONDUIT    12.375    10  08:21      2.44    1.09    0.85
  105                  CONDUIT    12.332    10  08:20      2.40    1.08    0.85
  106                  CONDUIT    12.227    10  08:20      2.37    1.07    0.85
  107                  CONDUIT    12.224    10  08:20      2.38    1.07    0.85
  108                  CONDUIT    12.133    10  08:20      2.36    1.07    0.84
  109                  CONDUIT    10.612    10  08:20      2.07    0.93    0.84
  110                  CONDUIT    10.764    10  08:20      2.15    0.95    0.82
  111                  CONDUIT    10.870    10  08:20      2.22    0.95    0.81
  112                  CONDUIT    11.049    10  08:20      2.28    0.97    0.80
  113                  CONDUIT    10.720    10  08:20      3.57    1.07    1.00
  114                  CONDUIT    10.716    10  08:20      3.57    1.06    1.00
  115                  CONDUIT    10.679    10  08:20      3.56    1.06    1.00
  116                  CONDUIT    10.632    10  08:20      3.54    1.06    1.00
[...]
  73                      1.00   0.00  0.00  0.00  1.00  0.00  0.00  0.00  0.00  0.00
  74                      1.00   0.00  0.00  0.00  1.00  0.00  0.00  0.00  0.00  0.00
  75                      1.00   0.00  0.00  0.00  1.00  0.00  0.00  0.00  0.90  0.00
  76                      1.00   0.00  0.00  0.00  1.00  0.00  0.00  0.00  0.90  0.00
  77                      1.00   0.00  0.00  0.00  1.00  0.00  0.00  0.00  0.98  0.00
  78                      1.00   0.00  0.00  0.00  0.44  0.56  0.00  0.00  0.00  0.00
  79                      1.00   0.00  0.00  0.00  1.00  0.00  0.00  0.00  0.99  0.00
  80                      1.00   0.00  0.00  0.00  0.00  1.00  0.00  0.00  0.87  0.00
  81                      1.00   0.00  0.00  0.00  0.00  1.00  0.00  0.00  0.29  0.00
  82                      1.00   0.00  0.00  0.00  0.00  1.00  0.00  0.00  0.88  0.00
  83                      1.00   0.00  0.00  0.00  0.00  1.00  0.00  0.00  0.36  0.00
  84                      1.00   0.00  0.00  0.00  0.00  1.00  0.00  0.00  0.34  0.00
  85                      1.00   0.00  0.00  0.00  0.06  0.94  0.00  0.00  0.45  0.00
  86                      1.00   0.00  0.00  0.00  0.01  0.99  0.00  0.00  0.19  0.00
  87                      1.00   0.00  0.00  0.00  0.00  1.00  0.00  0.00  0.27  0.00
  88                      1.00   0.00  0.00  0.00  0.00  1.00  0.00  0.00  0.31  0.00
  89                      1.00   0.00  0.00  0.00  0.00  1.00  0.00  0.00  0.28  0.00
  90                      1.00   0.00  0.00  0.00  0.00  1.00  0.00  0.00  0.33  0.00
  91                      1.00   0.00  0.15  0.00  0.62  0.23  0.00  0.00  0.72  0.00
  92                      1.00   0.15  0.00  0.00  0.43  0.42  0.00  0.00  0.70  0.00
  93                      1.00   0.15  0.00  0.00  0.43  0.42  0.00  0.00  0.73  0.00
  94                      1.00   0.15  0.00  0.00  0.43  0.42  0.00  0.00  0.72  0.00
  95                      1.00   0.15  0.00  0.00  0.43  0.42  0.00  0.00  0.72  0.00
  96                      1.00   0.15  0.00  0.00  0.43  0.42  0.00  0.00  0.72  0.00
  97                      1.00   0.15  0.00  0.00  0.43  0.42  0.00  0.00  0.71  0.00
  98                      1.00   0.15  0.00  0.00  0.68  0.17  0.00  0.00  0.00  0.00
  99                      1.00   0.15  0.00  0.00  0.85  0.00  0.00  0.00  0.50  0.00
  100                     1.00   0.15  0.00  0.00  0.85  0.00  0.00  0.00  0.48  0.00
  101                     1.00   0.15  0.00  0.00  0.85  0.00  0.00  0.00  0.49  0.00
  102                     1.00   0.15  0.00  0.00  0.85  0.00  0.00  0.00  0.57  0.00
  103                     1.00   0.15  0.00  0.00  0.85  0.00  0.00  0.00  0.56  0.00
  104                     1.00   0.15  0.00  0.00  0.85  0.00  0.00  0.00  0.57  0.00
  105                     1.00   0.15  0.00  0.00  0.85  0.00  0.00  0.00  0.60  0.00
  106                     1.00   0.15  0.00  0.00  0.85  0.00  0.00  0.00  0.63  0.00
  107                     1.00   0.15  0.00  0.00  0.85  0.00  0.00  0.00  0.66  0.00
  108                     1.00   0.15  0.00  0.00  0.85  0.00  0.00  0.00  0.68  0.00
  109                     1.00   0.15  0.00  0.00  0.85  0.00  0.00  0.00  0.59  0.00
  110                     1.00   0.15  0.00  0.00  0.85  0.00  0.00  0.00  0.61  0.00
  111                     1.00   0.15  0.00  0.00  0.85  0.00  0.00  0.00  0.66  0.00
  112                     1.00   0.15  0.00  0.00  0.85  0.00  0.00  0.00  0.71  0.00
  113                     1.00   0.15  0.00  0.00  0.85  0.00  0.00  0.00  0.80  0.00
  114                     1.00   0.15  0.00  0.00  0.60  0.25  0.00  0.00  0.72  0.00
  115                     1.00   0.15  0.00  0.00  0.60  0.25  0.00  0.00  0.73  0.00
  116                     1.00   0.15  0.00  0.00  0.60  0.25  0.00  0.00  0.74  0.00
  117                     1.00   0.15  0.00  0.00  0.00  0.85  0.00  0.00  0.03  0.00
  118                     1.00   0.15  0.00  0.00  0.13  0.72  0.00  0.00  0.77  0.00
  119                     1.00   0.15  0.00  0.00  0.85  0.00  0.00  0.00  0.80  0.00
  120                     1.00   0.15  0.00  0.00  0.85  0.00  0.00  0.00  0.78  0.00
  121                     1.00   0.15  0.00  0.00  0.85  0.00  0.00  0.00  0.75  0.00
  122                     1.00   0.15  0.00  0.00  0.85  0.00  0.00  0.00  0.78  0.00
  123                     1.00   0.15  0.00  0.00  0.85  0.00  0.00  0.00  0.81  0.00
  124                     1.00   0.15  0.00  0.00  0.85  0.00  0.00  0.00  0.81  0.00
  125                     1.00   0.15  0.00  0.00  0.85  0.00  0.00  0.00  0.00  0.00
  126                     1.00   0.15  0.00  0.00  0.85  0.00  0.00  0.00  0.79  0.00
  127                     1.00   0.15  0.00  0.00  0.85  0.00  0.00  0.00  0.74  0.00
  128                     1.00   0.15  0.00  0.00  0.85  0.00  0.00  0.00  0.76  0.00
  129                     1.00   0.15  0.04  0.00  0.81  0.00  0.00  0.00  0.79  0.00
  130                     1.00   0.18  0.21  0.00  0.61  0.00  0.00  0.00  0.43  0.00
  131                     1.00   0.39  0.14  0.00  0.47  0.00  0.00  0.00  0.53  0.00
  132                     1.00   0.00  0.00  0.00  0.06  0.94  0.00  0.00  0.95  0.00
  133                     1.00   0.00  0.00  0.00  0.14  0.86  0.00  0.00  0.00  0.00
  134                     1.00   0.00  0.00  0.00  0.05  0.95  0.00  0.00  0.00  0.00
  135                     1.00   0.00  0.00  0.00  0.01  0.99  0.00  0.00  0.07  0.00
  136                     1.00   0.00  0.00  0.00  0.00  1.00  0.00  0.00  0.25  0.00
  137                     1.00   0.00  0.00  0.00  1.00  0.00  0.00  0.00  0.00  0.00
  138                     1.00   0.00  0.00  0.00  1.00  0.00  0.00  0.00  0.00  0.00
  139                     1.00   0.00  0.00  0.00  1.00  0.00  0.00  0.00  0.00  0.00
  140                     1.00   0.00  0.00  0.00  1.00  0.00  0.00  0.00  0.00  0.00
  141                     1.00   0.00  0.00  0.00  1.00  0.00  0.00  0.00  0.00  0.00
  142                     1.00   0.00  0.00  0.00  1.00  0.00  0.00  0.00  0.00  0.00
  143                     1.00   0.00  0.00  0.00  1.00  0.00  0.00  0.00  0.00  0.00
  144                     1.00   0.00  0.00  0.00  1.00  0.00  0.00  0.00  0.00  0.00
  145                     1.00   0.00  0.00  0.00  1.00  0.00  0.00  0.00  0.00  0.00
  146                     1.00   0.00  0.00  0.00  1.00  0.00  0.00  0.00  0.00  0.00
  147                     1.00   0.00  0.00  0.00  1.00  0.00  0.00  0.00  0.00  0.00
  148                     1.00   0.00  0.00  0.00  1.00  0.00  0.00  0.00  0.00  0.00
  149                     1.00   0.00  0.00  0.00  1.00  0.00  0.00  0.00  0.00  0.00
  150                     1.00   0.00  0.00  0.00  1.00  0.00  0.00  0.00  0.67  0.00
  151                     1.00   0.00  0.00  0.00  1.00  0.00  0.00  0.00  0.07  0.00
  152                     1.00   0.00  0.00  0.00  1.00  0.00  0.00  0.00  0.00  0.00
  153                     1.00   0.00  0.00  0.00  1.00  0.00  0.00  0.00  0.00  0.00
  154                     1.00   0.00  0.00  0.00  1.00  0.00  0.00  0.00  0.00  0.00
  155                     1.00   0.00  0.00  0.00  1.00  0.00  0.00  0.00  0.00  0.00
  156                     1.00   0.00  0.00  0.00  1.00  0.00  0.00  0.00  0.00  0.00
  157                     1.00   0.00  0.00  0.00  1.00  0.00  0.00  0.00  0.00  0.00
  158                     1.00   0.00  0.00  0.00  1.00  0.00  0.00  0.00  0.00  0.00
  159                     1.00   0.00  0.00  0.00  1.00  0.00  0.00  0.00  0.00  0.00
  160                     1.00   0.00  0.00  0.00  1.00  0.00  0.00  0.00  0.00  0.00
  161                     1.00   0.00  0.00  0.00  1.00  0.00  0.00  0.00  0.05  0.00
  162                     1.00   0.00  0.15  0.00  0.85  0.00  0.00  0.00  0.52  0.00
  163                     1.00   0.15  0.00  0.00  0.85  0.00  0.00  0.00  0.61  0.00
  164                     1.00   0.15  0.00  0.00  0.85  0.00  0.00  0.00  0.67  0.00
  165                     1.00   0.15  0.00  0.00  0.85  0.00  0.00  0.00  0.65  0.00
  166                     1.00   0.15  0.00  0.00  0.85  0.00  0.00  0.00  0.76  0.00
  167                     1.00   0.15  0.00  0.00  0.85  0.00  0.00  0.00  0.77  0.00
  168                     1.00   0.15  0.00  0.00  0.85  0.00  0.00  0.00  0.70  0.00
  169                     1.00   0.15  0.00  0.00  0.85  0.00  0.00  0.00  0.80  0.00
  170                     1.00   0.15  0.00  0.00  0.85  0.00  0.00  0.00  0.72  0.00
  171                     1.00   0.15  0.00  0.00  0.85  0.00  0.00  0.00  0.76  0.00
  172                     1.00   0.00  0.00  0.00  1.00  0.00  0.00  0.00  0.00  0.00
  173                     1.00   0.00  0.15  0.00  0.85  0.00  0.00  0.00  0.81  0.00
  174                     1.00   0.15  0.37  0.00  0.48  0.00  0.00  0.00  0.83  0.00
  47b                     1.00   0.00  0.00  0.00  0.09  0.91  0.00  0.00  0.00  0.00
  48                      1.00   0.00  0.00  0.00  1.00  0.00  0.00  0.00  0.00  0.00
  56                      1.00   0.00  0.00  0.00  1.00  0.00  0.00  0.00  0.00  0.00
  80-a                    1.00   0.00  0.00  0.00  0.00  1.00  0.00  0.00  0.82  0.00
  81-a                    1.00   0.00  0.00  0.00  0.00  1.00  0.00  0.00  1.00  0.00
  82-a                    1.00   0.00  0.00  0.00  0.00  1.00  0.00  0.00  0.21  0.00
  83-a                    1.00   0.00  0.00  0.00  0.00  1.00  0.00  0.00  0.32  0.00
  84-a                    1.00   0.00  0.00  0.00  0.00  1.00  0.00  0.00  0.30  0.00
  85-a                    1.00   0.00  0.00  0.00  0.10  0.90  0.00  0.00  0.00  0.00
  86-a                    1.00   0.00  0.00  0.00  0.02  0.98  0.00  0.00  0.10  0.00
  87-a                    1.00   0.00  0.00  0.00  0.00  1.00  0.00  0.00  0.24  0.00
  88-a                    1.00   0.00  0.00  0.00  0.00  1.00  0.00  0.00  0.29  0.00
  89-a                    1.00   0.00  0.00  0.00  0.00  1.00  0.00  0.00  0.21  0.00
  90-a                    1.00   0.00  0.00  0.00  0.00  1.00  0.00  0.00  0.31  0.00
  69                      1.00   0.00  0.00  0.00  1.00  0.00  0.00  0.00  0.00  0.00
  
  
  *************************
  Conduit Surcharge Summary
  *************************
  
  ----------------------------------------------------------------------------
                                                           Hours        Hours 
                         --------- Hours Full --------   Above Full   Capacity
  Conduit                Both Ends  Upstream  Dnstream   Normal Flow   Limited
  ----------------------------------------------------------------------------
  2                           0.01      0.01      0.01      1.99         0.01
  3                           0.01      0.01      0.01      2.45         0.01
  4                           0.01      0.39      0.01      2.33         0.01
  5                           0.39      1.82      0.39      2.33         0.39
  6                           1.82      2.14      1.82      2.33         1.81
  7                           2.14      2.24      2.14      2.33         2.13
  8                           2.24      2.27      2.24      2.33         2.23
  9                           2.27      2.29      2.27      2.30         2.25
  10                          2.28      2.30      2.29      2.30         2.26
  11                          2.29      2.31      2.30      2.30         2.25
  12                          2.29      2.30      2.31      2.28         2.24
  13                          2.29      2.30      2.30      2.27         2.23
  14                          2.28      2.28      2.30      2.14         2.11
  15                          2.27      2.28      2.28      2.13         2.09
  16                          2.27      2.27      2.28      2.14         2.08
  17                          2.26      2.27      2.27      2.14         2.06
  18                          2.09      2.09      2.27      0.01         0.01
  19                          1.97      1.97      2.09      0.01         0.01
  20                          1.79      1.79      1.97      0.01         0.01
  21                          1.44      1.44      1.79      0.01         0.01
  22                          1.20      1.20      1.44      0.01         0.01
  23                          0.12      0.12      1.20      0.01         0.01
  24                          0.11      0.11      0.12      0.01         0.01
  25                          0.11      0.11      0.11      0.01         0.01
  26                          0.11      0.11      0.11      0.11         0.11
  27                          0.10      0.10      0.11      0.08         0.08
  28                          0.09      0.09      0.10      0.07         0.07
  29                          0.08      0.08      0.09      0.01         0.02
  30                          0.08      0.08      0.08      0.01         0.01
  31                          0.08      0.08      0.08      0.01         0.01
  32                          0.07      0.08      0.08      0.01         0.01
  33                          0.07      0.07      0.08      0.01         0.01
  34                          0.07      0.07      0.07      0.01         0.01
  35                          0.07      0.07      0.07      0.01         0.01
  36                          0.01      0.01      0.07      0.01         0.01
  47a                         0.01      0.01      0.12      0.01         0.01
  49                          8.05      8.05      8.72      0.01         0.01
  50                          5.36      6.75      5.36     14.68         5.36
  52                          0.01      3.55      0.01      3.69         0.01
  53                          0.01      0.01      0.92      0.01         0.01
  54                          3.29      3.29      4.13      0.01         0.01
  55                          0.01      0.01      1.38      0.01         0.01
  57                          0.66      0.66      3.23      0.01         0.01
  58                          0.01      0.01      0.01      2.39         0.01
  59                          0.01      0.01      0.01      1.31         0.01
  60                          0.01      0.01      0.01      4.33         0.01
  61                          0.01      0.01      0.01     19.41         0.01
  63                          0.01      0.01      0.01      6.43         0.01
  65                          0.06      2.43      0.06      0.40         0.06
  67                          0.01      0.01      0.01      9.39         0.01
  70                          0.01      0.01      0.01      1.52         0.01
  72                          0.01      0.01      0.01     18.79         0.01
  73                          0.01      0.01      0.01     22.99         0.01
  74                          0.01      0.01      0.01     29.16         0.01
  75                          0.01      0.01      0.01      0.01         0.01
  78                          0.01      0.01      0.01     15.13         0.01
  81                          0.01      0.01      0.01      0.04         0.01
  82                          0.01      0.01      0.01      0.03         0.01
  83                          0.01      0.01      0.01      0.03         0.01
  84                          0.01      0.01      0.01      0.02         0.01
  98                          0.01      0.01      0.01      0.79         0.01
  99                          0.01      0.01      0.01      0.67         0.01
  100                         0.01      0.01      0.01      0.68         0.01
  101                         0.01      0.01      0.01      0.66         0.01
  102                         0.01      0.01      0.01      0.06         0.01
  103                         0.01      0.01      0.01      0.06         0.01
  104                         0.01      0.01      0.01      0.06         0.01
  105                         0.01      0.01      0.01      0.06         0.01
  106                         0.01      0.01      0.01      0.06         0.01
  107                         0.01      0.01      0.01      0.05         0.01
  108                         0.01      0.01      0.01      0.05         0.01
  113                         0.14      0.14      0.62      0.03         0.03
  114                         0.08      0.08      0.14      0.03         0.03
  115                         0.07      0.07      0.08      0.03         0.03
  116                         0.06      0.06      0.07      0.03         0.03
  117                         0.06      6.34      0.06      7.80         0.06
  118                         6.34      7.05      6.34      7.80         6.34
  119                         5.85      5.85      7.05      0.01         0.01
  120                         5.25      5.25      5.85      0.01         0.01
  121                         0.14      0.14      5.25      0.06         0.06
  122                         0.07      0.07      0.14      0.05         0.05
  123                         0.06      0.06      0.07      0.01         0.01
  124                         4.32      4.32      7.05      0.01         0.01
  125                         3.69      3.69      4.32      2.43         2.44
  126                         3.46      3.46      3.69      2.43         2.44
  127                         3.34      3.34      3.46      2.50         2.51
  128                         3.21      3.21      3.34      2.49         2.49
  129                         0.01      0.01      3.21      0.01         0.01
  130                         0.01      0.01      0.01      0.01         0.01
  138                         0.01      0.01      0.01    127.92         0.01
  139                         0.01      0.01      0.01    127.90         0.01
  140                         0.01      0.01      0.01    127.89         0.01
  141                         0.01      0.01      0.01    127.89         0.01
  142                         0.01      0.01      0.01    127.88         0.01
  143                         0.01      0.01      0.01    127.87         0.01
  144                         0.01     37.68      0.01    127.84         0.01
  145                        37.68     42.48     37.68    127.75        37.68
  146                        42.48     46.66     42.48    127.73        42.48
  147                        46.66     50.76     46.66    127.70        46.66
  148                        50.76     54.26     50.76    127.68        50.76
  149                        54.26     55.07     54.26    103.45        54.23
  150                        15.12     15.12     55.07      0.33         0.33
  151                         7.48      7.48     15.12      0.01         0.01
  152                        76.59    263.70     76.59     63.90        57.61
  153                       263.70    263.71    263.70     63.88        63.88
  154                       263.71    263.71    263.71     63.87        63.86
  155                       263.71    263.72    263.71     26.68        26.66
  156                       263.72    263.72    263.72      5.40         5.39
  157                       263.72    263.73    263.72      0.01         0.01
  158                         0.01      0.01    263.73      0.01         0.01
  159                         0.01      0.01      0.01      0.01         0.01
  160                         0.01      0.01      0.07      0.01         0.01
  47b                         0.01      6.36      0.01      0.01         0.01
  48                          0.01      5.64      0.01      0.01         0.01
  56                          0.01      2.43      0.01     29.99         0.01
  69                          0.01      0.56      0.01      0.01         0.01
  

  Analysis begun on:  Wed Nov  3 14:23:37 2021
  Analysis ended on:  Wed Nov  3 14:24:58 2021
  Total elapsed time: 00:01:21