
  EPA STORM WATER MANAGEMENT MODEL - VERSION 5.1 (Build 5.1.13)
  --------------------------------------------------------------

  
  ERROR 209: undefined object -0.08510458 at line 16624 of [SUBAREA] section:
  ws-148 1.654277 -0.08510458 3.56249 4 25 OUTLET 100
