
  EPA STORM WATER MANAGEMENT MODEL - VERSION 5.1 (Build 5.1.13)
  --------------------------------------------------------------

  WARNING 03: negative offset ignored for Link 43
  WARNING 03: negative offset ignored for Link 44
  WARNING 04: minimum elevation drop used for Conduit 58
  WARNING 04: minimum elevation drop used for Conduit 59
  WARNING 04: minimum elevation drop used for Conduit 60
  WARNING 04: minimum elevation drop used for Conduit 61
  WARNING 04: minimum elevation drop used for Conduit 63
  WARNING 04: minimum elevation drop used for Conduit 67
  WARNING 04: minimum elevation drop used for Conduit 72
  WARNING 04: minimum elevation drop used for Conduit 73
  WARNING 04: minimum elevation drop used for Conduit 74
  WARNING 04: minimum elevation drop used for Conduit 78
  WARNING 04: minimum elevation drop used for Conduit 56
  WARNING 02: maximum depth increased for Node 22
  WARNING 02: maximum depth increased for Node 23
  WARNING 02: maximum depth increased for Node 24
  WARNING 02: maximum depth increased for Node 25
  WARNING 02: maximum depth increased for Node 32
  WARNING 02: maximum depth increased for Node 33
  WARNING 02: maximum depth increased for Node 34
  WARNING 02: maximum depth increased for Node 35
  WARNING 02: maximum depth increased for Node 36
  WARNING 02: maximum depth increased for Node 37
  WARNING 02: maximum depth increased for Node 40
  WARNING 02: maximum depth increased for Node 41
  WARNING 02: maximum depth increased for Node 42
  WARNING 02: maximum depth increased for Node 43_depth
  WARNING 02: maximum depth increased for Node 44
  WARNING 02: maximum depth increased for Node 46
  WARNING 02: maximum depth increased for Node 47
  WARNING 02: maximum depth increased for Node 50
  WARNING 02: maximum depth increased for Node 51
  WARNING 02: maximum depth increased for Node 52
  WARNING 02: maximum depth increased for Node 53
  WARNING 02: maximum depth increased for Node 55
  WARNING 02: maximum depth increased for Node 56a
  WARNING 02: maximum depth increased for Node 57
  WARNING 02: maximum depth increased for Node 58
  WARNING 02: maximum depth increased for Node 59
  WARNING 02: maximum depth increased for Node 60
  WARNING 02: maximum depth increased for Node 61
  WARNING 02: maximum depth increased for Node 62
  WARNING 02: maximum depth increased for Node 63
  WARNING 02: maximum depth increased for Node 64
  WARNING 02: maximum depth increased for Node 65
  WARNING 02: maximum depth increased for Node 66
  WARNING 02: maximum depth increased for Node 67
  WARNING 02: maximum depth increased for Node 68
  WARNING 02: maximum depth increased for Node 69
  WARNING 02: maximum depth increased for Node 70
  WARNING 02: maximum depth increased for Node 71
  WARNING 02: maximum depth increased for Node 72
  WARNING 02: maximum depth increased for Node 73
  WARNING 02: maximum depth increased for Node 74
  WARNING 02: maximum depth increased for Node 75
  WARNING 02: maximum depth increased for Node 76
  WARNING 02: maximum depth increased for Node 77
  WARNING 02: maximum depth increased for Node 78
  WARNING 02: maximum depth increased for Node 79
  WARNING 02: maximum depth increased for Node 92
  WARNING 02: maximum depth increased for Node 134
  WARNING 02: maximum depth increased for Node 135
  WARNING 02: maximum depth increased for Node 136
  WARNING 02: maximum depth increased for Node 138
  WARNING 02: maximum depth increased for Node 139
  WARNING 02: maximum depth increased for Node 140
  WARNING 02: maximum depth increased for Node 141
  WARNING 02: maximum depth increased for Node 142
  WARNING 02: maximum depth increased for Node 143
  WARNING 02: maximum depth increased for Node 158
  WARNING 02: maximum depth increased for Node 163
  WARNING 02: maximum depth increased for Node 164
  WARNING 02: maximum depth increased for Node 165
  WARNING 02: maximum depth increased for Node 166
  WARNING 02: maximum depth increased for Node 167
  WARNING 02: maximum depth increased for Node 168
  WARNING 02: maximum depth increased for Node 170
  WARNING 02: maximum depth increased for Node 171
  WARNING 02: maximum depth increased for Node 173
  WARNING 02: maximum depth increased for Node 174
  
  *********************************************************
  NOTE: The summary statistics displayed in this report are
  based on results found at every computational time step,  
  not just on results from each reporting time step.
  *********************************************************
  
  ****************
  Analysis Options
  ****************
  Flow Units ............... CMS
  Process Models:
    Rainfall/Runoff ........ YES
    RDII ................... NO
    Snowmelt ............... NO
    Groundwater ............ NO
    Flow Routing ........... YES
    Ponding Allowed ........ YES
    Water Quality .......... NO
  Infiltration Method ...... CURVE_NUMBER
  Flow Routing Method ...... DYNWAVE
  Surcharge Method ......... EXTRAN
  Starting Date ............ 09/01/2018 00:00:00
  Ending Date .............. 09/01/2019 00:00:00
  Antecedent Dry Days ...... 0.0
  Report Time Step ......... 00:00:00
  Wet Time Step ............ 12:00:00
  Dry Time Step ............ 12:00:00
  Routing Time Step ........ 150.00 sec
  Variable Time Step ....... YES
  Maximum Trials ........... 8
  Number of Threads ........ 8
  Head Tolerance ........... 0.001500 m
  
  
  **************************        Volume         Depth
  Runoff Quantity Continuity     hectare-m            mm
  **************************     ---------       -------
  Total Precipitation ......      7632.134      7101.840
  Evaporation Loss .........         0.000         0.000
  Infiltration Loss ........       137.806       128.231
  Surface Runoff ...........      7550.102      7025.507
  Final Storage ............         6.924         6.443
  Continuity Error (%) .....        -0.821
  
  
  **************************        Volume        Volume
  Flow Routing Continuity        hectare-m      10^6 ltr
  **************************     ---------     ---------
  Dry Weather Inflow .......      1190.520     11905.327
  Wet Weather Inflow .......      7517.183     75172.610
  Groundwater Inflow .......         0.000         0.000
  RDII Inflow ..............         0.000         0.000
  External Inflow ..........         0.000         0.000
  External Outflow .........      7222.927     72230.024
  Flooding Loss ............      2027.375     20273.966
  Evaporation Loss .........         0.000         0.000
  Exfiltration Loss ........         0.000         0.000
  Initial Stored Volume ....         0.067         0.673
  Final Stored Volume ......         2.460        24.604
  Continuity Error (%) .....        -6.259
  
  
  *************************
  Highest Continuity Errors
  *************************
  Node 47a (-7.38%)
  Node 47b (-2.82%)
  Node 48 (-2.11%)
  
  
  ***************************
  Time-Step Critical Elements
  ***************************
  Link 47b (91.68%)
  Link 56 (6.07%)
  Link 48 (2.23%)
  
  
  ********************************
  Highest Flow Instability Indexes
  ********************************
  Link 47b (131)
  Link 47a (130)
  Link 47 (122)
  Link 48 (121)
  Link 46 (116)
  
  
  *************************
  Routing Time Step Summary
  *************************
  Minimum Time Step           :     9.00 sec
  Average Time Step           :     9.00 sec
  Maximum Time Step           :     9.00 sec
  Percent in Steady State     :     0.00
  Average Iterations per Step :     3.42
  Percent Not Converging      :    16.33
  
  
  ***************************
  Subcatchment Runoff Summary
  ***************************
  
  ------------------------------------------------------------------------------------------------------------------------------
                            Total      Total      Total      Total     Imperv       Perv      Total       Total     Peak  Runoff
                           Precip      Runon       Evap      Infil     Runoff     Runoff     Runoff      Runoff   Runoff   Coeff
  Subcatchment                 mm         mm         mm         mm         mm         mm         mm    10^6 ltr      CMS
  ------------------------------------------------------------------------------------------------------------------------------
  ws-1                    7101.84       0.00       0.00      66.40    1460.18    5581.89    7042.08       31.69     0.05   0.992
  ws-2                    7101.84       0.00       0.00      67.16    1395.08    5644.08    7039.16       17.60     0.03   0.991
  ws-3                    7101.84       0.00       0.00      76.11    3243.30    3816.26    7059.57      683.37     1.18   0.994
  ws-7                    7101.84       0.00       0.00      55.70    2368.85    4681.33    7050.18       16.92     0.03   0.993
  ws-8                    7101.84       0.00       0.00      45.89    3202.68    3859.22    7061.90       64.26     0.11   0.994
  ws-9                    7101.84       0.00       0.00      45.82    3208.43    3850.15    7058.57       20.47     0.04   0.994
  ws-10                   7101.84       0.00       0.00      19.54    5440.91    1641.88    7082.79       19.83     0.03   0.997
  ws-11                   7101.84       0.00       0.00      21.49    5275.79    1806.63    7082.42      105.53     0.18   0.997
  ws-12                   7101.84       0.00       0.00      26.09    4884.50    2192.65    7077.15       25.48     0.04   0.997
  ws-13                   7101.84       0.00       0.00      46.41    4850.31    2211.96    7062.28      250.71     0.43   0.994
  ws-14                   7101.84       0.00       0.00      27.19    4791.69    2284.29    7075.98       14.86     0.03   0.996
  ws-15                   7101.84       0.00       0.00      32.97    4299.76    2770.93    7070.69       14.85     0.03   0.996
  ws-16                   7101.84       0.00       0.00      24.78    4996.34    2082.07    7078.41       21.24     0.04   0.997
  ws-17                   7101.84       0.00       0.00      47.51    3805.31    3330.14    7135.45     5000.55     8.53   1.005
  ws-18                   7101.84       0.00       0.00      22.76    5167.20    1912.59    7079.79       12.04     0.02   0.997
  ws-19                   7101.84       0.00       0.00     115.91    3583.49    3420.88    7004.38      277.37     0.48   0.986
  ws-20                   7101.84       0.00       0.00     113.51    3656.33    3363.46    7019.79      971.54     1.68   0.988
  ws-21                   7101.84       0.00       0.00     455.59    2293.84    4393.31    6687.14       40.12     0.07   0.942
  ws-22                   7101.84       0.00       0.00      93.69    4129.16    2920.27    7049.43     1450.08     2.50   0.993
  ws-23                   7101.84       0.00       0.00     409.36    2881.43    3856.77    6738.20       48.52     0.09   0.949
  ws-24                   7101.84       0.00       0.00     446.08    3433.45    3250.01    6683.46       11.36     0.02   0.941
  ws-25                   7101.84       0.00       0.00     287.61    3702.67    3143.62    6846.28      225.24     0.40   0.964
  ws-26                   7101.84       0.00       0.00     106.75    3569.32    3457.07    7026.39      732.15     1.27   0.989
  ws-27                   7101.84       0.00       0.00     467.38    2405.51    4266.32    6671.83       31.36     0.06   0.939
  ws-28                   7101.84       0.00       0.00     437.25    2723.86    3980.15    6704.02       67.04     0.12   0.944
  ws-29                   7101.84       0.00       0.00     534.60    1494.12    5128.62    6622.75       89.41     0.16   0.933
  ws-30                   7101.84       0.00       0.00     147.50    2425.86    4546.79    6972.65      105.98     0.19   0.982
  ws-31                   7101.84       0.00       0.00     578.95    1042.11    5535.90    6578.01       23.02     0.04   0.926
  ws-32                   7101.84       0.00       0.00     668.12    1675.45    4844.26    6519.71      649.37     1.21   0.918
  ws-35                   7101.84       0.00       0.00     642.67     256.67    6272.82    6529.49       58.11     0.11   0.919
  ws-37                   7101.84       0.00       0.00      58.50    4263.86    2787.03    7050.89       67.69     0.12   0.993
  ws-38                   7101.84       0.00       0.00      40.34    3674.02    3392.75    7066.77       69.96     0.12   0.995
  ws-40                   7101.84       0.00       0.00      21.74    5254.84    1826.57    7081.41       13.45     0.02   0.997
  ws-41                   7101.84       0.00       0.00      15.78    5761.05    1327.49    7088.55      213.37     0.37   0.998
  ws-42                   7101.84       0.00       0.00      25.46    4938.44    2142.02    7080.46      208.17     0.36   0.997
  ws-43                   7101.84       0.00       0.00      37.71    3897.67    3170.11    7067.78       53.01     0.09   0.995
  ws-45                   7101.84       0.00       0.00      66.31    3558.39    3491.75    7050.14     1071.63     1.85   0.993
  ws-46                   7101.84       0.00       0.00      20.79    5337.74    1762.91    7100.65     1225.58     2.10   1.000
  ws-47                   7101.84       0.00       0.00      34.21    4195.20    2874.78    7069.98       46.66     0.08   0.996
  ws-48                   7101.84       0.00       0.00      15.91    5749.45    1337.01    7086.46       19.13     0.03   0.998
  ws-49                   7101.84       0.00       0.00      42.42    6440.31     620.11    7060.42       78.37     0.14   0.994
  ws-50                   7101.84       0.00       0.00       1.25    6994.86     105.39    7100.25       44.73     0.08   1.000
  ws-52                   7101.84       0.00       0.00      32.71    4322.19    2749.56    7071.75      118.10     0.20   0.996
  ws-53                   7101.84       0.00       0.00      21.17    5302.59    1779.26    7081.85      552.39     0.95   0.997
  ws-54                   7101.84       0.00       0.00      30.02    4550.44    2522.42    7072.87       29.00     0.05   0.996
  ws-55                   7101.84       0.00       0.00      71.51    3476.02    3578.38    7054.39      818.31     1.41   0.993
  ws-57                   7101.84       0.00       0.00      77.16     545.76    6496.75    7042.50       26.76     0.05   0.992
  ws-58                   7101.84       0.00       0.00      57.34    2230.11    4839.75    7069.87      180.99     0.31   0.995
  ws-60                   7101.84       0.00       0.00      40.09    3695.48    3369.87    7065.35       32.50     0.06   0.995
  ws-61                   7101.84       0.00       0.00      38.12    3862.72    3205.38    7068.10       55.13     0.09   0.995
  ws-62                   7101.84       0.00       0.00      41.12    3607.92    3455.76    7063.68       22.60     0.04   0.995
  ws-63                   7101.84       0.00       0.00      31.55    4420.76    2656.40    7077.15      258.32     0.44   0.997
  ws-64                   7101.84       0.00       0.00      88.29    3734.70    3304.70    7039.40      676.49     1.17   0.991
  ws-65                   7101.84       0.00       0.00      37.09    3950.02    3119.11    7069.13       77.76     0.13   0.995
  ws-66                   7101.84       0.00       0.00      39.16    3774.22    3292.88    7067.10     1064.31     1.83   0.995
  ws-69                   7101.84       0.00       0.00      88.23    3419.47    3631.84    7051.32      789.75     1.36   0.993
  ws-70                   7101.84       0.00       0.00      38.03    3870.48    3205.95    7076.42      104.02     0.18   0.996
  ws-71                   7101.84       0.00       0.00      69.50    3730.41    3317.47    7047.88     3533.12     6.10   0.992
  ws-73                   7101.84       0.00       0.00      32.37    4351.26    2721.45    7072.71       49.51     0.09   0.996
  ws-74                   7101.84       0.00       0.00      73.85     827.03    6272.01    7099.04      192.39     0.33   1.000
  ws-75                   7101.84       0.00       0.00      87.00     610.40    6425.42    7035.82       47.14     0.08   0.991
  ws-77                   7101.84       0.00       0.00      88.09     529.41    6494.06    7023.47       16.15     0.03   0.989
  ws-78                   7101.84       0.00       0.00     361.31    2411.64    4373.05    6784.69      183.87     0.33   0.955
  ws-79                   7101.84       0.00       0.00      61.22    2233.72    4819.35    7053.07       66.30     0.11   0.993
  ws-80                   7101.84       0.00       0.00      51.25    2747.16    4306.55    7053.71        4.23     0.01   0.993
  ws-81                   7101.84       0.00       0.00     370.32    2655.60    4119.93    6775.52       96.21     0.17   0.954
  ws-83                   7101.84       0.00       0.00     294.78    3275.40    3568.51    6843.91       99.24     0.18   0.964
  ws-84                   7101.84       0.00       0.00     330.58    5336.32    1458.83    6795.16     9085.86    16.13   0.957
  ws-87                   7101.84       0.00       0.00       2.15    6919.10     180.32    7099.42       14.20     0.02   1.000
  ws-88                   7101.84       0.00       0.00      25.97    4895.68    2186.66    7082.34      293.92     0.51   0.997
  ws-89                   7101.84       0.00       0.00       1.98    6932.99     166.39    7099.38       14.20     0.02   1.000
  ws-90                   7101.84       0.00       0.00       2.07    6925.61     173.60    7099.22        2.13     0.00   1.000
  ws-91                   7101.84       0.00       0.00       1.42    6980.88     119.08    7099.95        2.84     0.00   1.000
  ws-92                   7101.84       0.00       0.00       6.67    6534.23     560.78    7095.01        8.51     0.01   0.999
  ws-93                   7101.84       0.00       0.00       8.26    6399.22     694.40    7093.62        4.26     0.01   0.999
  ws-94                   7101.84       0.00       0.00       7.97    6424.99     669.75    7094.74      110.68     0.19   0.999
  ws-95                   7101.84       0.00       0.00       8.18    6406.77     686.92    7093.69       17.73     0.03   0.999
  ws-96                   7101.84       0.00       0.00       2.84    6859.96     238.38    7098.34        4.97     0.01   1.000
  ws-97                   7101.84       0.00       0.00      12.50    6039.87    1050.09    7089.96       56.01     0.10   0.998
  ws-98                   7101.84       0.00       0.00      17.33    5628.91    1456.59    7085.50       53.85     0.09   0.998
  ws-101                  7101.84       0.00       0.00      25.85    4905.03    2172.93    7077.96       38.22     0.07   0.997
  ws-102                  7101.84       0.00       0.00      24.35    5032.11    2046.91    7079.01       33.98     0.06   0.997
  ws-103                  7101.84       0.00       0.00      31.44    4430.52    2642.52    7073.03        4.95     0.01   0.996
  ws-105                  7101.84       0.00       0.00      24.04    5059.01    2020.39    7079.40       23.36     0.04   0.997
  ws-106                  7101.84       0.00       0.00       6.19    6575.59     520.03    7095.61       15.61     0.03   0.999
  ws-107                  7101.84       0.00       0.00       8.43    6384.76     708.71    7093.47       17.73     0.03   0.999
  ws-108                  7101.84       0.00       0.00      20.00    5402.36    1683.57    7085.94      254.39     0.44   0.998
  ws-112                  7101.84       0.00       0.00      31.11    4458.26    2615.37    7073.63       60.13     0.10   0.996
  ws-114                  7101.84       0.00       0.00      65.28    3377.60    3662.80    7040.40        3.52     0.01   0.991
  ws-115                  7101.84       0.00       0.00      45.66    4496.43    2562.07    7058.50        4.24     0.01   0.994
  ws-116                  7101.84       0.00       0.00      37.34    4316.51    2770.49    7087.00     1625.77     2.79   0.998
  ws-118                  7101.84       0.00       0.00      45.06    3272.88    3786.39    7059.27        2.82     0.00   0.994
  ws-119                  7101.84       0.00       0.00      20.63    5348.71    1734.34    7083.04       53.83     0.09   0.997
  ws-120                  7101.84       0.00       0.00      30.19    4535.91    2537.40    7073.30       14.15     0.02   0.996
  ws-121                  7101.84       0.00       0.00      24.73    4999.87    2078.35    7078.22       18.40     0.03   0.997
  ws-122                  7101.84       0.00       0.00      23.14    5135.54    1945.28    7080.82       75.06     0.13   0.997
  ws-123                  7101.84       0.00       0.00      22.78    5167.31    1923.96    7091.27     2091.94     3.59   0.999
  ws-124                  7101.84       0.00       0.00      46.74    3130.18    3930.40    7060.59       52.95     0.09   0.994
  ws-127                  7101.84       0.00       0.00      70.60    1103.03    5935.37    7038.39        8.45     0.01   0.991
  ws-128                  7101.84       0.00       0.00      23.28    5581.50    1523.35    7104.85     4852.64     8.31   1.000
  ws-130                  7101.84       0.00       0.00      51.71    2707.88    4346.15    7054.03        7.05     0.01   0.993
  ws-131                  7101.84       0.00       0.00      38.45    3834.40    3230.66    7065.06        1.41     0.00   0.995
  ws-132                  7101.84       0.00       0.00      30.76    4489.44    2605.49    7094.93     1363.65     2.34   0.999
  ws-136                  7101.84       0.00       0.00      77.61    2757.90    4305.41    7063.31      554.47     0.96   0.995
  ws-137                  7101.84       0.00       0.00      45.94    2603.72    4455.93    7059.65       16.24     0.03   0.994
  ws-138                  7101.84       0.00       0.00      62.09    1022.36    6030.86    7053.22       57.84     0.10   0.993
  ws-139                  7101.84       0.00       0.00      62.78     954.66    6088.69    7043.35       19.72     0.03   0.992
  ws-141                  7101.84       0.00       0.00      64.02     833.76    6209.51    7043.26       11.27     0.02   0.992
  ws-142                  7101.84       0.00       0.00      62.62     970.51    6073.00    7043.51       10.57     0.02   0.992
  ws-143                  7101.84       0.00       0.00      60.21    1206.44    5844.63    7051.08       48.65     0.08   0.993
  ws-144                  7101.84       0.00       0.00      79.50    3760.83    3278.76    7039.59      133.05     0.23   0.991
  ws-145                  7101.84       0.00       0.00      26.87    4470.51    2605.60    7076.11        7.08     0.01   0.996
  ws-146                  7101.84       0.00       0.00      50.76    2131.84    4924.20    7056.04       18.35     0.03   0.994
  ws-148                  7101.84       0.00       0.00     105.77    3577.20    3457.29    7034.49     5728.22     9.91   0.991
  ws-149                  7101.84       0.00       0.00      70.59     190.68    6849.22    7039.90        2.11     0.00   0.991
  ws-150                  7101.84       0.00       0.00     100.53    2926.76    4174.81    7101.57     3162.35     5.42   1.000
  ws-154                  7101.84       0.00       0.00      42.83    2908.27    4158.13    7066.40       45.23     0.08   0.995
  ws-155                  7101.84       0.00       0.00      57.21    2240.98    4809.70    7050.68       11.28     0.02   0.993
  ws-156                  7101.84       0.00       0.00      44.12    3352.60    3711.31    7063.90       36.73     0.06   0.995
  ws-157                  7101.84       0.00       0.00      57.87    2783.87    4277.26    7061.13      110.86     0.19   0.994
  ws-159                  7101.84       0.00       0.00      79.68    2871.09    4238.02    7109.11     5287.08     9.05   1.001
  ws-161                  7101.84       0.00       0.00     172.55    3231.75    3809.62    7041.38    13742.74    23.75   0.991
  ws-162                  7101.84       0.00       0.00     611.52     592.26    5970.84    6563.11       16.41     0.03   0.924
  ws-163                  7101.84       0.00       0.00     563.16    1274.54    5318.06    6592.60       26.37     0.05   0.928
  ws-165                  7101.84       0.00       0.00     256.19    4536.62    2331.89    6868.50      151.11     0.27   0.967
  ws-166                  7101.84       0.00       0.00      71.82    6397.65     636.78    7034.43       67.53     0.12   0.991
  ws-167                  7101.84       0.00       0.00     165.15    5483.63    1462.26    6945.89        8.34     0.01   0.978
  ws-168                  7101.84       0.00       0.00     194.69    5062.44    1863.91    6926.35      120.52     0.21   0.975
  ws-169                  7101.84       0.00       0.00     132.63    5769.41    1207.80    6977.22       10.47     0.02   0.982
  ws-170                  7101.84       0.00       0.00     242.70    5065.44    1810.77    6876.22       40.57     0.07   0.968
  ws-171                  7101.84       0.00       0.00     172.50    4863.18    2088.29    6951.48      796.64     1.39   0.979
  ws-172                  7101.84       0.00       0.00      41.24    3597.50    3473.62    7071.13      108.90     0.19   0.996
  ws-173                  7101.84       0.00       0.00      29.50    4596.99    2504.97    7101.96     1564.57     2.68   1.000
  ws-174                  7101.84       0.00       0.00      17.54    5610.84    1474.30    7085.13        6.38     0.01   0.998
  
  
  ******************
  Node Depth Summary
  ******************
  
  ---------------------------------------------------------------------------------
                                 Average  Maximum  Maximum  Time of Max    Reported
                                   Depth    Depth      HGL   Occurrence   Max Depth
  Node                 Type       Meters   Meters   Meters  days hr:min      Meters
  ---------------------------------------------------------------------------------
  1                    JUNCTION     0.28     1.18    35.88    40  21:55        1.18
  2                    JUNCTION     0.49     2.04    37.06    40  20:04        2.04
  3                    JUNCTION     0.51     2.13    37.46    40  18:26        2.13
  4                    JUNCTION     0.52     2.16    37.81    40  08:47        2.16
  5                    JUNCTION     0.52     2.22    38.18    40  16:27        2.20
  6                    JUNCTION     0.52     2.25    38.53    40  15:01        2.24
  7                    JUNCTION     0.52     2.29    38.88    40  21:09        2.28
  8                    JUNCTION     0.52     2.33    39.24    40  20:36        2.32
  9                    JUNCTION     0.53     2.37    39.59    40  17:46        2.36
  10                   JUNCTION     0.53     2.41    39.94    40  15:31        2.40
  11                   JUNCTION     0.53     2.44    40.29    40  21:43        2.43
  12                   JUNCTION     0.53     2.48    40.64    40  12:58        2.46
  13                   JUNCTION     0.53     2.51    40.99    40  23:52        2.50
  14                   JUNCTION     0.53     2.54    41.33    40  14:50        2.53
  15                   JUNCTION     0.53     2.57    41.67    40  22:21        2.55
  16                   JUNCTION     0.53     2.59    42.02    40  17:06        2.58
  17                   JUNCTION     0.53     2.62    42.36    40  23:34        2.61
  18                   JUNCTION     0.52     2.54    42.60    40  22:50        2.53
  19                   JUNCTION     0.51     2.46    42.83    40  18:26        2.44
  20                   JUNCTION     0.51     2.37    43.06    40  15:29        2.35
  21                   JUNCTION     0.50     2.25    43.29    40  18:14        2.24
  22                   JUNCTION     0.50     2.13    43.49    15  08:05        2.13
  23                   JUNCTION     0.50     2.13    43.83    40  06:27        2.13
  24                   JUNCTION     0.50     2.13    44.15    40  06:28        2.13
  25                   JUNCTION     0.50     2.13    44.27    40  06:28        2.13
  26                   JUNCTION     0.50     2.15    44.47    40  19:27        2.15
  27                   JUNCTION     0.49     2.15    44.80    40  23:53        2.14
  28                   JUNCTION     0.49     2.16    45.12    40  13:35        2.14
  29                   JUNCTION     0.49     2.16    45.57    40  22:43        2.14
  30                   JUNCTION     0.49     2.15    45.92    41  00:25        2.14
  31                   JUNCTION     0.49     2.15    46.24    40  14:01        2.14
  32                   JUNCTION     0.49     2.13    46.54    40  06:46        2.13
  33                   JUNCTION     0.49     2.13    46.86    40  07:07        2.13
  34                   JUNCTION     0.49     2.13    47.17    40  07:06        2.13
  35                   JUNCTION     0.49     2.13    47.52    40  07:06        2.13
  36                   JUNCTION     0.45     1.95    47.65    40  18:24        1.95
  37                   JUNCTION     0.44     1.81    47.88    40  13:04        1.81
  38                   JUNCTION     0.43     1.75    48.14    40  20:43        1.75
  39                   JUNCTION     0.43     1.90    48.35    40  16:58        1.90
  40                   JUNCTION     0.50     1.66    48.60    40  13:07        1.66
  41                   JUNCTION     0.37     1.20    49.72    40  17:02        1.20
  42                   JUNCTION     0.45     1.74    50.45    40  17:02        1.74
  43_depth             JUNCTION     0.64     1.90    50.51    40  23:48        1.90
  44                   JUNCTION     0.27     0.81    51.70    40  15:22        0.81
  45                   JUNCTION     0.61     2.20    53.25    40  20:38        2.20
  46                   JUNCTION     0.97     2.52    53.43    40  17:11        2.52
  47                   JUNCTION     0.59     2.08    53.41    40  17:48        2.08
  48                   JUNCTION     0.59     2.57    54.86    41  00:00        2.57
  49                   JUNCTION     0.56     2.54    54.90    41  00:00        2.54
  50                   JUNCTION     0.93     3.05    55.47    15  12:06        3.05
  51                   JUNCTION     0.29     1.12    55.31    41  06:13        1.11
  52                   JUNCTION     0.45     2.44    56.74    40  09:23        2.44
  53                   JUNCTION     0.57     2.20    56.78    40  12:04        2.20
  54                   JUNCTION     0.28     2.01    56.88    40  12:04        2.00
  55                   JUNCTION     0.15     1.79    57.02    40  12:04        1.78
  56a                  JUNCTION     0.22     1.65    57.16    40  12:04        1.65
  57                   JUNCTION     0.19     1.92    58.00    40  10:51        1.92
  58                   JUNCTION     0.30     2.13    58.21    41  00:00        2.13
  59                   JUNCTION     0.39     2.36    58.44    41  00:00        2.36
  60                   JUNCTION     0.52     2.61    58.69    41  00:01        2.61
  61                   JUNCTION     0.54     2.74    58.83    40  12:00        2.73
  62                   JUNCTION     0.10     1.16    59.07    40  12:00        0.95
  63                   JUNCTION     0.24     2.56    60.47    41  00:00        2.56
  64                   JUNCTION     0.17     2.28    60.44    41  00:00        2.28
  65                   JUNCTION     0.25     3.36    61.79    41  00:01        3.36
  66                   JUNCTION     0.26     3.27    61.79    41  00:00        3.27
  67                   JUNCTION     0.46     3.36    61.88    41  00:00        3.36
  68                   JUNCTION     0.29     2.45    61.98    41  00:00        2.45
  69                   JUNCTION     0.24     2.87    62.67    41  00:00        2.87
  70                   JUNCTION     0.39     2.85    62.68    41  00:00        2.85
  71                   JUNCTION     0.26     2.60    62.65    41  00:00        2.60
  72                   JUNCTION     0.41     2.67    62.71    41  00:00        2.67
  73                   JUNCTION     0.51     2.77    62.82    41  00:01        2.77
  74                   JUNCTION     0.53     2.82    62.86    41  00:01        2.82
  75                   JUNCTION     0.27     2.21    62.87    41  00:01        2.21
  76                   JUNCTION     0.24     1.98    62.94    41  00:00        1.98
  77                   JUNCTION     0.10     1.33    62.90    41  00:00        1.33
  78                   JUNCTION     0.33     1.80    63.37    41  00:00        1.80
  79                   JUNCTION     0.16     1.08    63.26    41  00:00        1.08
  80                   JUNCTION     0.13     0.97    63.58    40  23:59        0.97
  81                   JUNCTION     0.16     1.16    63.99    40  23:59        1.16
  82                   JUNCTION     0.16     1.16    64.19    40  23:59        1.16
  83                   JUNCTION     0.16     1.16    64.40    40  23:59        1.16
  84                   JUNCTION     0.15     1.15    64.61    40  23:59        1.15
  85                   JUNCTION     0.13     0.93    64.60    40  23:59        0.93
  86                   JUNCTION     0.12     0.80    64.68    40  23:58        0.80
  87                   JUNCTION     0.12     0.74    64.83    41  00:00        0.74
  88                   JUNCTION     0.12     0.71    65.00    41  00:00        0.71
  89                   JUNCTION     0.12     0.68    65.19    41  00:00        0.68
  90                   JUNCTION     0.12     0.66    65.45    41  00:00        0.66
  91                   JUNCTION     0.12     0.72    65.71    40  21:56        0.72
  92                   JUNCTION     0.12     0.72    65.92    40  21:56        0.72
  93                   JUNCTION     0.12     0.72    66.13    40  13:58        0.71
  94                   JUNCTION     0.12     0.71    66.34    40  21:45        0.71
  95                   JUNCTION     0.12     0.71    66.55    40  21:48        0.71
  96                   JUNCTION     0.12     0.71    66.76    40  21:55        0.71
  97                   JUNCTION     0.12     0.72    66.98    40  21:55        0.71
  98                   JUNCTION     0.16     0.90    67.19    40  21:54        0.90
  99                   JUNCTION     0.17     0.97    67.29    40  21:55        0.97
  100                  JUNCTION     0.18     1.02    67.37    40  23:36        1.02
  101                  JUNCTION     0.19     1.07    67.45    40  21:45        1.07
  102                  JUNCTION     0.18     1.06    67.50    40  21:39        1.06
  103                  JUNCTION     0.18     1.06    67.55    40  21:39        1.06
  104                  JUNCTION     0.17     1.05    67.61    40  21:54        1.05
  105                  JUNCTION     0.17     1.05    67.67    40  21:54        1.05
  106                  JUNCTION     0.17     1.04    67.72    40  21:54        1.04
  107                  JUNCTION     0.17     1.04    67.78    40  21:53        1.04
  108                  JUNCTION     0.17     1.04    67.83    40  21:53        1.04
  109                  JUNCTION     0.17     1.02    67.88    40  21:53        1.02
  110                  JUNCTION     0.17     1.02    67.93    40  21:53        1.02
  111                  JUNCTION     0.17     1.01    67.98    40  21:53        1.01
  112                  JUNCTION     0.17     1.00    68.06    40  23:41        1.00
  113                  JUNCTION     0.13     0.83    68.48    40  21:47        0.83
  114                  JUNCTION     0.12     0.80    69.15    40  23:41        0.80
  115                  JUNCTION     0.12     0.79    69.74    40  23:40        0.79
  116                  JUNCTION     0.12     0.79    70.60    40  19:10        0.79
  117                  JUNCTION     0.25     1.65    72.07    40  17:01        1.64
  118                  JUNCTION     0.30     2.41    73.43    40  21:14        2.41
  119                  JUNCTION     0.17     1.79    73.40    14  10:36        1.79
  120                  JUNCTION     0.12     1.21    73.42    14  10:36        1.21
  121                  JUNCTION     0.08     0.76    73.58    40  12:00        0.76
  122                  JUNCTION     0.06     0.61    74.06    40  12:00        0.61
  123                  JUNCTION     0.06     0.60    74.74    40  12:00        0.60
  124                  JUNCTION     0.12     1.22    73.74    40  23:04        1.21
  125                  JUNCTION     0.15     1.23    74.05    40  13:22        1.22
  126                  JUNCTION     0.14     1.22    74.35    40  07:21        1.22
  127                  JUNCTION     0.14     1.26    74.69    40  13:20        1.25
  128                  JUNCTION     0.14     1.29    75.04    40  07:36        1.29
  129                  JUNCTION     0.05     0.93    75.05    40  07:39        0.93
  130                  JUNCTION     0.01     0.44    75.05    40  07:42        0.44
  131                  JUNCTION     0.00     0.01    75.11    40  12:24        0.01
  132                  JUNCTION     0.12     0.65    65.59    40  23:38        0.65
  133                  JUNCTION     0.10     0.51    65.60    40  23:38        0.51
  134                  JUNCTION     0.10     0.44    65.68    40  23:37        0.44
  135                  JUNCTION     0.10     0.41    65.80    40  12:05        0.41
  136                  JUNCTION     0.10     0.40    65.94    40  12:01        0.40
  137                  JUNCTION     0.14     0.46    66.02    40  12:01        0.46
  138                  JUNCTION     0.25     0.73    66.31    40  12:01        0.73
  139                  JUNCTION     0.28     0.82    66.41    40  12:02        0.82
  140                  JUNCTION     0.31     0.88    66.48    40  12:02        0.88
  141                  JUNCTION     0.32     0.93    66.55    40  12:02        0.93
  142                  JUNCTION     0.34     0.97    66.61    40  12:02        0.97
  143                  JUNCTION     0.35     1.00    66.66    10  04:24        1.00
  144                  JUNCTION     0.36     1.05    66.72    40  13:57        1.04
  145                  JUNCTION     0.37     1.06    66.75    10  01:53        1.06
  146                  JUNCTION     0.41     1.26    66.97    40  11:36        1.26
  147                  JUNCTION     0.45     1.44    67.16    14  03:34        1.44
  148                  JUNCTION     0.51     1.78    67.52    14  05:04        1.78
  149                  JUNCTION     0.54     2.23    67.99    40  06:47        2.23
  150                  JUNCTION     0.34     2.73    69.11    40  23:26        2.73
  151                  JUNCTION     0.27     2.36    69.18    40  23:58        2.36
  152                  JUNCTION     0.26     2.11    69.53    40  23:57        2.11
  153                  JUNCTION     0.25     1.87    69.89    40  21:34        1.87
  154                  JUNCTION     0.24     1.62    70.24    40  23:56        1.62
  155                  JUNCTION     0.22     1.29    70.50    40  20:47        1.28
  156                  JUNCTION     0.20     0.92    70.74    40  06:26        0.92
  157                  JUNCTION     0.18     0.66    71.08    14  06:18        0.66
  158                  JUNCTION     0.15     0.50    71.52    10  08:14        0.50
  160                  JUNCTION     0.34     2.07    47.61    40  23:59        2.06
  161                  JUNCTION     0.29     2.03    47.68    40  23:23        2.03
  162                  JUNCTION     0.24     1.94    47.68    40  23:10        1.94
  163                  JUNCTION     0.21     1.85    47.68    40  23:54        1.85
  164                  JUNCTION     0.19     1.76    47.68    40  23:12        1.76
  165                  JUNCTION     0.17     1.67    47.68    40  23:53        1.67
  166                  JUNCTION     0.15     1.58    47.68    40  23:32        1.58
  167                  JUNCTION     0.12     1.40    47.68    40  23:17        1.40
  168                  JUNCTION     0.11     1.31    47.68    40  23:55        1.31
  169                  JUNCTION     0.09     1.22    47.68    40  23:55        1.22
  170                  JUNCTION     0.08     1.13    47.68    40  23:54        1.13
  171                  JUNCTION     0.06     0.97    47.68    40  23:55        0.97
  172                  JUNCTION     0.19     1.32    48.60    40  18:50        1.32
  173                  JUNCTION     0.05     0.59    48.61    40  17:04        0.59
  174                  JUNCTION     0.00     0.01    49.36    40  12:10        0.01
  47a                  JUNCTION     0.28     2.26    54.47    14  06:46        1.68
  47b                  JUNCTION     0.50     2.23    54.47    14  06:44        2.23
  56b                  JUNCTION     0.32     2.36    57.86    40  10:07        2.36
  159                  JUNCTION     0.15     0.50    72.01    10  08:47        0.50
  0                    OUTFALL      2.00     2.00    34.39     0  00:00        2.00
  
  
  *******************
  Node Inflow Summary
  *******************
  
  -------------------------------------------------------------------------------------------------
                                  Maximum  Maximum                  Lateral       Total        Flow
                                  Lateral    Total  Time of Max      Inflow      Inflow     Balance
                                   Inflow   Inflow   Occurrence      Volume      Volume       Error
  Node                 Type           CMS      CMS  days hr:min    10^6 ltr    10^6 ltr     Percent
  -------------------------------------------------------------------------------------------------
  1                    JUNCTION     0.055   57.439    40  18:26        31.6    7.22e+04       0.011
  2                    JUNCTION     0.030   51.053    40  12:42        17.5    7.22e+04       0.007
  3                    JUNCTION     1.178   51.025    40  16:54         681    7.22e+04       0.002
  4                    JUNCTION     0.000   50.395    40  15:35           0    7.15e+04       0.001
  5                    JUNCTION     0.000   50.414    40  20:27           0    7.15e+04       0.000
  6                    JUNCTION     0.000   50.407    40  23:13           0    7.15e+04       0.000
  7                    JUNCTION     0.029   50.398    40  11:51        16.9    7.15e+04       0.000
  8                    JUNCTION     0.111   50.374    40  20:19          64    7.15e+04       0.000
  9                    JUNCTION     0.035   50.299    40  23:33        20.4    7.15e+04       0.000
  10                   JUNCTION     0.034   50.238    40  16:27        19.8    7.14e+04       0.001
  11                   JUNCTION     0.181   50.215    40  13:04         105    7.14e+04       0.000
  12                   JUNCTION     0.044   50.014    40  16:52        25.4    7.13e+04       0.000
  13                   JUNCTION     0.432   49.976    40  18:36         250    7.13e+04       0.001
  14                   JUNCTION     0.026   49.552    40  17:51        14.8     7.1e+04       0.000
  15                   JUNCTION     0.026   49.536    40  17:09        14.8     7.1e+04       0.000
  16                   JUNCTION     0.037   49.493    40  19:22        21.2     7.1e+04       0.000
  17                   JUNCTION     8.530   49.481    40  21:55    4.98e+03     7.1e+04       0.001
  18                   JUNCTION     0.021   44.787    41  06:59          12     6.6e+04       0.000
  19                   JUNCTION     0.482   44.777    41  06:59         276     6.6e+04       0.000
  20                   JUNCTION     1.685   44.560    41  06:59         968    6.57e+04       0.001
  21                   JUNCTION     0.073   43.854    41  07:00          40    6.48e+04       0.001
  22                   JUNCTION     2.504   49.944    40  12:00    1.44e+03    6.62e+04       0.001
  23                   JUNCTION     0.088   47.528    40  12:00        48.3    6.48e+04       0.000
  24                   JUNCTION     0.020   47.461    41  00:00        11.3    6.47e+04       0.001
  25                   JUNCTION     0.400   49.324    40  16:39         224    6.49e+04      -0.000
  26                   JUNCTION     1.268   48.992    40  16:13         729    6.47e+04       0.001
  27                   JUNCTION     0.057   47.764    40  19:40        31.2     6.4e+04       0.000
  28                   JUNCTION     0.122   47.586    40  18:49        66.8    6.39e+04       0.000
  29                   JUNCTION     0.164   47.545    40  20:19          89    6.39e+04       0.001
  30                   JUNCTION     0.185   47.413    73  00:55         106    6.38e+04      -0.000
  31                   JUNCTION     0.043   47.288    41  04:48        22.9    6.37e+04       0.001
  32                   JUNCTION     1.212   48.652    40  12:00         646    6.38e+04       0.000
  33                   JUNCTION     0.000   47.440    40  07:25           0    6.32e+04       0.000
  34                   JUNCTION     0.000   47.441    73  01:06           0    6.32e+04       0.000
  35                   JUNCTION     0.108   59.864    40  23:57        57.9     6.4e+04       0.001
  36                   JUNCTION     0.000   33.793    40  23:07           0     4.9e+04       0.001
  37                   JUNCTION     0.117   33.795    40  15:14        67.4     4.9e+04       0.000
  38                   JUNCTION     0.121   33.683    40  19:48        69.7     4.9e+04       0.001
  39                   JUNCTION     0.000   33.550    40  21:07           0    4.89e+04       0.000
  40                   JUNCTION     0.023   33.549    40  17:43        13.4     4.9e+04       0.001
  41                   JUNCTION     0.366   30.645    40  12:44         213    4.72e+04       0.001
  42                   JUNCTION     0.358   30.282    40  13:03         207     4.7e+04       0.004
  43_depth             JUNCTION     0.091   29.927    40  15:18        52.8    4.68e+04       0.005
  44                   JUNCTION     0.000   29.837    40  21:12           0    4.68e+04       0.029
  45                   JUNCTION     1.850   32.405   100  13:24    1.07e+03    4.68e+04       0.024
  46                   JUNCTION     2.101   49.673    63  03:46    1.22e+03    4.54e+04      -0.721
  47                   JUNCTION     0.080   40.748   105  06:41        46.5    4.43e+04       0.223
  48                   JUNCTION     0.033   52.599    56  08:51        19.1    4.26e+04      -2.068
  49                   JUNCTION     0.135   28.536    40  06:10        78.1    4.26e+04       0.039
  50                   JUNCTION     0.077   37.706    41  00:00        44.6    4.38e+04       0.001
  51                   JUNCTION     0.000   37.630    40  09:25           0    4.37e+04       0.001
  52                   JUNCTION     0.203   40.508    40  12:05         118    4.39e+04      -0.004
  53                   JUNCTION     2.249   40.285    40  12:05    1.25e+04    4.38e+04       0.008
  54                   JUNCTION     0.050   37.994    40  11:56        28.9    3.13e+04       0.001
  55                   JUNCTION     1.412   37.905    40  12:06         815    3.13e+04       0.002
  56a                  JUNCTION     0.000   36.611    40  10:14           0    3.05e+04       0.001
  57                   JUNCTION     0.046   42.897    41  00:00        26.7    3.08e+04       0.004
  58                   JUNCTION     0.312   42.853    41  00:00         180    3.08e+04       0.011
  59                   JUNCTION     0.000   42.548    41  00:01           0    3.06e+04       0.005
  60                   JUNCTION     0.056   43.055    40  12:00        32.4    3.06e+04       0.029
  61                   JUNCTION     0.095   45.683    40  12:00        54.9    3.05e+04      -0.364
  62                   JUNCTION     0.039   78.322    41  00:00        22.5    3.05e+04       0.363
  63                   JUNCTION     0.444   45.192    40  12:00         257    3.04e+04      -0.354
  64                   JUNCTION     1.170   41.929    41  00:00         674    3.01e+04      -0.023
  65                   JUNCTION     0.134   40.739    41  00:00        77.5    2.95e+04      -0.001
  66                   JUNCTION     1.833   40.604    40  23:59    1.06e+03    2.94e+04       0.001
  67                   JUNCTION     0.000   38.772    40  23:59           0    2.83e+04      -0.001
  68                   JUNCTION     0.000   38.772    41  00:00           0    2.83e+04       0.007
  69                   JUNCTION     1.363   38.773    41  00:00         786    2.83e+04      -0.003
  70                   JUNCTION     0.179   37.411    40  23:58         104    2.75e+04       0.026
  71                   JUNCTION     6.102   37.233    40  23:58    3.52e+03    2.74e+04       0.004
  72                   JUNCTION     0.000   31.137    41  00:01           0    2.39e+04       0.000
  73                   JUNCTION     0.085   31.136    41  00:01        49.3    2.39e+04       0.001
  74                   JUNCTION     0.330   31.051    41  00:01         192    2.39e+04       0.002
  75                   JUNCTION     0.082   30.723    41  00:00        46.9    2.37e+04       0.001
  76                   JUNCTION     0.000   30.643    41  00:00           0    2.36e+04       0.001
  77                   JUNCTION     0.028   30.643    41  00:00        16.1    2.36e+04       0.001
  78                   JUNCTION     0.330   30.615    41  00:00         183    2.36e+04       0.001
  79                   JUNCTION     0.114   30.286    41  00:00          66    2.34e+04       0.000
  80                   JUNCTION     0.007   30.171    40  23:59        4.22    2.34e+04       0.000
  81                   JUNCTION     0.173   30.164    40  23:59        95.8    2.34e+04      -0.000
  82                   JUNCTION     0.000   29.991    40  23:59           0    2.33e+04       0.000
  83                   JUNCTION     0.176   29.991    40  23:59        98.8    2.33e+04       0.000
  84                   JUNCTION    16.135   29.814    40  23:59    9.05e+03    2.32e+04       0.000
  85                   JUNCTION     0.000   13.682    41  00:01           0    1.41e+04       0.000
  86                   JUNCTION     0.000   13.682    40  13:59           0    1.41e+04       0.000
  87                   JUNCTION     0.024   13.681    40  13:59        14.1    1.41e+04       0.000
  88                   JUNCTION     0.505   13.657    40  13:59         293    1.41e+04       0.000
  89                   JUNCTION     0.024   13.152    40  13:59        14.1    1.38e+04       0.000
  90                   JUNCTION     0.004   13.127    40  13:58        2.12    1.38e+04       0.001
  91                   JUNCTION     0.005    8.456    40  21:46        2.83    8.41e+03      -0.000
  92                   JUNCTION     0.015    8.451    40  21:46        8.48     8.4e+03       0.000
  93                   JUNCTION     0.007    8.439    40  21:55        4.24     8.4e+03       0.000
  94                   JUNCTION     0.190    8.438    40  21:55         110    8.39e+03      -0.000
  95                   JUNCTION     0.030    8.250    40  21:55        17.7    8.29e+03       0.060
  96                   JUNCTION     0.009    8.315    40  21:55        4.95    8.26e+03      -0.042
  97                   JUNCTION     0.096    8.669    40  21:55        55.8    8.33e+03       0.867
  98                   JUNCTION     0.093    8.111    40  21:54        53.6     8.2e+03      -0.859
  99                   JUNCTION     0.000    8.012    40  21:54           0    8.15e+03      -0.019
  100                  JUNCTION     0.000    8.010    40  21:39           0    8.15e+03      -0.003
  101                  JUNCTION     0.066    8.010    40  21:39        38.1    8.15e+03       0.000
  102                  JUNCTION     0.058    7.944    40  21:54        33.8    8.11e+03       0.001
  103                  JUNCTION     0.009    7.886    40  21:54        4.93    8.08e+03       0.000
  104                  JUNCTION     0.000    7.877    40  23:42           0    8.07e+03       0.000
  105                  JUNCTION     0.040    7.877    40  23:42        23.3    8.07e+03       0.000
  106                  JUNCTION     0.027    7.837    40  23:42        15.5    8.05e+03       0.000
  107                  JUNCTION     0.030    7.810    40  23:42        17.7    8.03e+03       0.000
  108                  JUNCTION     0.437    7.780    40  23:42         253    8.02e+03       0.000
  109                  JUNCTION     0.000    7.343    40  23:42           0    7.76e+03       0.001
  110                  JUNCTION     0.000    7.343    40  23:41           0    7.76e+03       0.000
  111                  JUNCTION     0.000    7.343    40  23:41           0    7.76e+03       0.001
  112                  JUNCTION     0.103    7.343    40  23:41        59.9    7.76e+03       0.001
  113                  JUNCTION     0.000    7.240    40  23:41           0     7.7e+03       0.000
  114                  JUNCTION     0.006    7.240    40  19:11        3.51     7.7e+03       0.000
  115                  JUNCTION     0.007    7.238    40  17:01        4.22     7.7e+03       0.001
  116                  JUNCTION     2.792    7.229    40  15:10    1.62e+03    7.69e+03      -0.005
  117                  JUNCTION     0.000    4.456    72  11:28           0    6.08e+03       0.016
  118                  JUNCTION     0.005    5.501    40  20:16        2.81    6.22e+03      -0.015
  119                  JUNCTION     0.093    2.544    40  14:31        53.6    2.06e+03      -0.004
  120                  JUNCTION     0.024    3.776    40  12:00        14.1    2.19e+03       0.000
  121                  JUNCTION     0.032    3.751    40  12:00        18.3    2.18e+03       0.001
  122                  JUNCTION     0.129    3.720    40  12:00        74.8    2.16e+03       0.001
  123                  JUNCTION     3.591    3.591    40  12:00    2.08e+03    2.08e+03       0.000
  124                  JUNCTION     0.091    5.497    40  22:22        52.7    4.72e+03      -0.001
  125                  JUNCTION     0.000    5.417    73  00:16           0    4.66e+03       0.000
  126                  JUNCTION     0.000    5.604    40  21:35           0    4.69e+03       0.001
  127                  JUNCTION     0.015    5.603    40  17:17        8.41    4.69e+03       0.001
  128                  JUNCTION     8.313    8.328    41  00:00    4.83e+03    4.84e+03       0.001
  129                  JUNCTION     0.000    0.034    40  06:57           0        8.57       0.013
  130                  JUNCTION     0.012    0.025    40  06:59        7.03        8.46       0.004
  131                  JUNCTION     0.002    0.002    40  12:00        1.41        1.41       0.010
  132                  JUNCTION     2.339    4.669    40  12:42    1.36e+03     5.4e+03       0.000
  133                  JUNCTION     0.000    2.329    40  12:42           0    4.04e+03       0.001
  134                  JUNCTION     0.000    2.329    40  12:01           0    4.04e+03       0.001
  135                  JUNCTION     0.000    2.329    40  12:01           0    4.04e+03       0.001
  136                  JUNCTION     0.955    2.329    40  12:01         552    4.04e+03       0.001
  137                  JUNCTION     0.028    1.374    40  12:02        16.2    3.49e+03       0.001
  138                  JUNCTION     0.100    1.346    40  12:01        57.6    3.47e+03       0.001
  139                  JUNCTION     0.034    1.246    40  12:00        19.6    3.41e+03       0.001
  140                  JUNCTION     0.000    1.233    72  00:56           0    3.39e+03       0.002
  141                  JUNCTION     0.019    1.240    72  00:56        11.2    3.39e+03       0.002
  142                  JUNCTION     0.018    1.249    72  00:56        10.5    3.38e+03       0.002
  143                  JUNCTION     0.084    1.418    40  13:59        48.5    3.47e+03       0.001
  144                  JUNCTION     0.230    1.348    40  15:54         133    3.43e+03       0.019
  145                  JUNCTION     0.012    2.575    40  21:29        7.05    5.76e+03       0.001
  146                  JUNCTION     0.032    2.563    40  12:10        18.3    5.75e+03       0.005
  147                  JUNCTION     0.000    3.299    14  05:11           0    6.77e+03       0.002
  148                  JUNCTION     9.911   13.849    41  00:00     5.7e+03    1.04e+04       0.001
  149                  JUNCTION     0.004    5.964    40  23:58         2.1    4.86e+03       0.001
  150                  JUNCTION     5.420    5.959    40  23:57    3.15e+03    4.86e+03      -0.002
  151                  JUNCTION     0.000    0.710    25  07:13           0    1.71e+03       0.011
  152                  JUNCTION     0.000    0.709    10  11:19           0    1.71e+03      -0.006
  153                  JUNCTION     0.000    0.709    11  01:15           0    1.71e+03       0.010
  154                  JUNCTION     0.078    0.709    41  11:14          45    1.71e+03      -0.009
  155                  JUNCTION     0.019    0.704    72  01:21        11.2    1.67e+03       0.007
  156                  JUNCTION     0.063    0.705    72  01:21        36.6    1.67e+03       0.001
  157                  JUNCTION     0.191    0.794    40  12:00         110    1.72e+03      -0.003
  158                  JUNCTION     0.000    0.702    10  08:49           0    1.75e+03       0.001
  160                  JUNCTION     0.000   26.014    40  23:57           0    1.49e+04       0.002
  161                  JUNCTION    23.751   26.036    40  23:57    1.37e+04    1.49e+04       0.000
  162                  JUNCTION     0.030    2.313    40  22:24        16.3    1.27e+03       0.016
  163                  JUNCTION     0.049    2.276    41  00:00        26.3    1.25e+03      -0.000
  164                  JUNCTION     0.000    2.220    40  17:04           0    1.22e+03       0.013
  165                  JUNCTION     0.268    2.171    40  15:16         150    1.22e+03       0.000
  166                  JUNCTION     0.117    1.867    40  18:01        67.3    1.07e+03       0.006
  167                  JUNCTION     0.015    1.742    40  13:04         8.3         991       0.002
  168                  JUNCTION     0.212    1.723    40  17:55         120         974       0.002
  169                  JUNCTION     0.018    1.506    40  21:11        10.4         850       0.002
  170                  JUNCTION     0.071    1.481    40  20:35        40.4         835       0.003
  171                  JUNCTION     1.395    1.395    41  00:00         793         793       0.002
  172                  JUNCTION     0.187    2.881    40  17:48         108    1.72e+03       0.014
  173                  JUNCTION     2.681    2.692    40  12:06    1.56e+03    1.57e+03       0.002
  174                  JUNCTION     0.011    0.011    40  12:00        6.35        6.35       0.005
  47a                  JUNCTION     0.000   91.838    67  12:37           0    4.15e+04      -6.876
  47b                  JUNCTION     0.000   74.869    56  08:51           0    4.35e+04      -2.744
  56b                  JUNCTION     0.000   42.897    41  00:00           0    3.08e+04       0.017
  159                  JUNCTION     9.052    9.052    41  00:00    5.26e+03    5.26e+03       0.000
  0                    OUTFALL      0.000   51.162    40  18:26           0    7.22e+04       0.000
  
  
  **********************
  Node Surcharge Summary
  **********************
  
  Surcharging occurs when water rises above the top of the highest conduit.
  ---------------------------------------------------------------------
                                               Max. Height   Min. Depth
                                   Hours       Above Crown    Below Rim
  Node                 Type      Surcharged         Meters       Meters
  ---------------------------------------------------------------------
  4                    JUNCTION       42.45          0.032        0.000
  5                    JUNCTION       66.81          0.085        2.174
  6                    JUNCTION       68.13          0.124        1.822
  7                    JUNCTION       68.86          0.162        1.470
  8                    JUNCTION       69.28          0.203        1.115
  9                    JUNCTION       69.39          0.240        0.765
  10                   JUNCTION       69.47          0.278        0.408
  11                   JUNCTION       69.47          0.314        0.058
  12                   JUNCTION       69.42          0.348        2.784
  13                   JUNCTION       69.37          0.382        2.436
  14                   JUNCTION       69.30          0.409        2.093
  15                   JUNCTION       69.19          0.435        1.753
  16                   JUNCTION       69.13          0.464        1.404
  17                   JUNCTION       69.06          0.491        1.063
  18                   JUNCTION       68.03          0.407        0.829
  19                   JUNCTION       67.22          0.326        0.591
  20                   JUNCTION       66.46          0.240        0.360
  21                   JUNCTION       65.57          0.123        0.133
  22                   JUNCTION       64.66          0.000        0.000
  23                   JUNCTION       39.14          0.000        0.000
  24                   JUNCTION       39.06          0.000        0.000
  25                   JUNCTION       39.15          0.000        0.000
  26                   JUNCTION       38.67          0.022        1.767
  27                   JUNCTION       37.91          0.025        1.438
  28                   JUNCTION       37.73          0.027        1.120
  29                   JUNCTION       37.58          0.026        0.669
  30                   JUNCTION       37.48          0.023        0.322
  31                   JUNCTION       37.34          0.018        0.003
  32                   JUNCTION       37.27          0.000        0.000
  33                   JUNCTION       35.45          0.000        0.000
  34                   JUNCTION       35.43          0.000        0.000
  35                   JUNCTION       35.44          0.000        0.000
  48                   JUNCTION      338.69          0.741        0.000
  49                   JUNCTION      345.69          0.726        0.000
  50                   JUNCTION       52.38          0.000        0.000
  52                   JUNCTION       17.61          0.000        0.000
  54                   JUNCTION       18.62          0.153        0.151
  117                  JUNCTION      206.73          0.654        2.277
  118                  JUNCTION      252.88          1.415        1.149
  119                  JUNCTION      178.37          0.793        0.000
  120                  JUNCTION      151.54          0.215        0.000
  124                  JUNCTION       93.41          0.218        1.769
  125                  JUNCTION       41.19          0.228        0.682
  126                  JUNCTION       38.93          0.224        0.000
  127                  JUNCTION       37.85          0.264        0.008
  128                  JUNCTION       37.10          0.285        0.000
  143                  JUNCTION      533.75          0.000        0.000
  144                  JUNCTION      598.20          0.049        0.147
  145                  JUNCTION      602.86          0.062        0.000
  146                  JUNCTION      606.51          0.261        0.015
  147                  JUNCTION      609.67          0.439        0.000
  148                  JUNCTION      613.26          0.781        0.000
  149                  JUNCTION      612.44          1.234        0.000
  150                  JUNCTION      428.44          1.731        0.499
  151                  JUNCTION      318.76          1.363        1.137
  152                  JUNCTION      518.65          1.613        0.521
  153                  JUNCTION      518.26          1.375        0.291
  154                  JUNCTION      518.08          1.121        0.171
  155                  JUNCTION      517.64          0.787        0.324
  156                  JUNCTION      517.30          0.416        0.000
  157                  JUNCTION      516.83          0.157        0.000
  158                  JUNCTION      515.72          0.000        0.000
  47a                  JUNCTION       13.64          0.430        0.000
  47b                  JUNCTION      258.96          0.399        0.000
  56b                  JUNCTION       33.58          0.378        0.000
  159                  JUNCTION      511.95          0.000        0.000
  
  
  *********************
  Node Flooding Summary
  *********************
  
  Flooding refers to all water that overflows a node, whether it ponds or not.
  --------------------------------------------------------------------------
                                                             Total   Maximum
                                 Maximum   Time of Max       Flood    Ponded
                        Hours       Rate    Occurrence      Volume     Depth
  Node                 Flooded       CMS   days hr:min    10^6 ltr    Meters
  --------------------------------------------------------------------------
  4                      16.13     0.537     40  15:40      24.499     0.000
  22                     64.66    11.396     40  23:01    1500.552     0.000
  23                     39.14     0.088     40  12:00       9.875     0.000
  24                     39.05     0.020     41  00:00       2.283     0.000
  25                     39.14     1.875     40  19:48     201.214     0.000
  32                     37.27     1.693     40  12:18     175.304     0.000
  33                      0.12     0.016     72  11:15       0.001     0.000
  34                      0.11     0.011     40  07:06       0.000     0.000
  35                     35.44    12.405     40  23:26     817.307     0.000
  48                    250.69    27.203     56  08:55    1045.454     0.585
  49                    344.14    24.769    105  07:37     640.623     0.712
  50                     52.33    11.473     41  00:00    1321.492     0.000
  52                     17.61     2.861     40  12:05     164.025     0.000
  119                   145.67     2.538     40  14:31     565.648     0.000
  120                   144.98     2.397     40  12:00     321.367     0.000
  126                    34.05     0.212     40  22:43      23.197     0.000
  128                    32.76     2.753     40  23:33     163.876     0.000
  143                   529.75     0.244     40  22:35     104.411     0.000
  145                   592.41     1.480     40  21:12    2461.841     0.000
  147                   404.42     0.777     40  18:16    1041.864     0.000
  148                   351.56    10.550     41  00:00    3653.223     0.000
  149                    36.45     2.026     40  23:58     140.550     0.000
  156                    37.89     0.151     40  23:57      10.763     0.000
  157                   309.92     0.264     40  12:00      84.427     0.000
  158                   515.71     0.099     14  06:24     149.182     0.000
  47a                     3.56    43.518     17  04:52     274.468     0.000
  47b                   113.57    33.785     72  05:35    3244.244     0.000
  56b                    16.00     6.421     41  00:00     309.501     0.000
  159                   511.94     8.351     41  00:00    3508.766     0.000
  
  
  ***********************
  Outfall Loading Summary
  ***********************
  
  -----------------------------------------------------------
                         Flow       Avg       Max       Total
                         Freq      Flow      Flow      Volume
  Outfall Node           Pcnt       CMS       CMS    10^6 ltr
  -----------------------------------------------------------
  0                     99.97     7.889    51.162   72229.693
  -----------------------------------------------------------
  System                99.97     7.889    51.162   72229.693
  
  
  ********************
  Link Flow Summary
  ********************
  
  -----------------------------------------------------------------------------
                                 Maximum  Time of Max   Maximum    Max/    Max/
                                  |Flow|   Occurrence   |Veloc|    Full    Full
  Link                 Type          CMS  days hr:min     m/sec    Flow   Depth
  -----------------------------------------------------------------------------
  1                    CONDUIT    51.162    40  18:26      4.59    0.40    0.75
  2                    CONDUIT    57.384    40  18:26      5.09    1.21    0.76
  3                    CONDUIT    51.023    40  12:42      3.50    1.08    0.98
  4                    CONDUIT    49.932    41  01:41      3.35    1.05    1.00
  5                    CONDUIT    50.395    40  15:35      3.38    1.06    1.00
  6                    CONDUIT    50.414    40  20:27      3.38    1.06    1.00
  7                    CONDUIT    50.407    40  23:13      3.38    1.06    1.00
  8                    CONDUIT    50.369    40  11:51      3.38    1.06    1.00
  9                    CONDUIT    50.263    40  20:19      3.37    1.06    1.00
  10                   CONDUIT    50.264    40  23:33      3.37    1.06    1.00
  11                   CONDUIT    50.204    40  16:27      3.37    1.06    1.00
  12                   CONDUIT    50.033    40  13:04      3.36    1.05    1.00
  13                   CONDUIT    49.971    40  16:52      3.35    1.05    1.00
  14                   CONDUIT    49.543    40  18:36      3.32    1.04    1.00
  15                   CONDUIT    49.526    40  17:51      3.32    1.04    1.00
  16                   CONDUIT    49.510    40  17:09      3.32    1.04    1.00
  17                   CONDUIT    49.456    40  19:22      3.32    1.04    1.00
  18                   CONDUIT    44.794    41  06:59      3.00    0.94    1.00
  19                   CONDUIT    44.779    41  06:59      3.03    0.94    1.00
  20                   CONDUIT    44.575    41  06:59      3.05    0.94    1.00
  21                   CONDUIT    43.852    41  06:59      3.03    0.92    1.00
  22                   CONDUIT    43.823    41  07:00      3.05    0.92    1.00
  23                   CONDUIT    47.440    40  06:40      3.18    1.00    1.00
  24                   CONDUIT    47.440    40  06:42      3.18    1.00    1.00
  25                   CONDUIT    47.440    40  06:42      3.18    1.00    1.00
  26                   CONDUIT    48.923    40  16:39      3.28    1.03    1.00
  27                   CONDUIT    47.724    40  16:13      3.20    1.01    1.00
  28                   CONDUIT    47.707    40  19:40      3.20    1.01    1.00
  29                   CONDUIT    47.506    73  00:29      3.19    1.00    1.00
  30                   CONDUIT    47.400    72  22:07      3.18    1.00    1.00
  31                   CONDUIT    47.296    73  00:55      3.17    1.00    1.00
  32                   CONDUIT    47.262    41  04:48      3.17    1.00    1.00
  33                   CONDUIT    47.440    72  11:40      3.18    1.00    1.00
  34                   CONDUIT    47.440    40  07:25      3.18    1.00    1.00
  35                   CONDUIT    47.441    73  01:06      3.18    1.00    1.00
  36                   CONDUIT    33.792    40  20:46      2.40    0.71    0.96
  37                   CONDUIT    33.793    40  23:07      2.57    0.71    0.88
  38                   CONDUIT    33.678    40  15:14      2.71    0.71    0.83
  39                   CONDUIT    33.562    40  19:48      2.02    0.45    0.85
  40                   CHANNEL    33.550    40  21:07      2.51    0.57    0.83
  41                   CHANNEL    30.646    40  17:03      4.24    0.07    0.33
  42                   CONDUIT    30.279    40  12:44      3.38    0.76    0.60
  43                   CHANNEL    29.924    40  13:03      2.41    0.12    0.54
  44                   CHANNEL    29.836    40  15:18      2.34    0.05    0.40
  45                   CONDUIT    29.837    40  21:12      5.43    0.32    0.48
  46                   CHANNEL    32.287   100  13:24      2.67    0.69    0.86
  47                   CHANNEL    49.338    63  03:46      7.80    0.20    0.75
  47a                  CONDUIT    40.734   105  06:41      5.39    0.45    1.00
  49                   CHANNEL    27.112    40  06:12      3.13    0.78    1.00
  50                   CHANNEL    28.461    40  06:10      3.63    3.14    1.00
  51                   CHANNEL    37.630    40  09:25      2.00    0.15    0.68
  52                   CONDUIT    37.630    40  09:25      5.55    1.31    0.80
  53                   CHANNEL    40.305    40  12:05      3.23    0.54    0.95
  54                   CHANNEL    38.036    40  12:05      3.14    0.54    1.00
  55                   CONDUIT    37.944    40  11:56      1.97    0.34    0.98
  56a                  CHANNEL    36.584    40  10:14      4.16    0.04    0.25
  57                   CHANNEL    42.897    41  00:00      2.11    0.48    1.00
  58                   CHANNEL    42.851    41  00:00      2.72    1.45    0.26
  59                   CHANNEL    42.542    41  00:01      2.58    1.26    0.25
  60                   CHANNEL    42.548    41  00:01      2.58    2.04    0.31
  61                   CHANNEL    42.999    40  12:00      2.10    7.89    0.67
  62                   CHANNEL    45.588    40  12:00      3.73    0.04    0.31
  63                   CHANNEL    78.284    41  00:00      5.12    5.30    0.44
  64                   CHANNEL    44.748    40  12:00      2.71    0.17    0.79
  65                   CONDUIT    40.760    41  00:01      5.19    1.07    1.00
  66                   CHANNEL    40.605    41  00:00      2.37    0.16    0.78
  67                   CHANNEL    38.773    41  00:02      1.93    7.69    0.73
  usgs_dis             CHANNEL    38.772    40  23:59      1.58    0.12    0.54
  70                   CHANNEL    37.410    41  00:00      3.76    0.37    0.78
  71                   CHANNEL    37.232    41  00:00      2.49    0.15    0.89
  72                   CHANNEL    31.140    41  00:02      1.79    6.67    0.79
  73                   CHANNEL    31.137    41  00:01      1.91    8.09    0.74
  74                   CHANNEL    31.051    41  00:01      1.34   10.12    0.92
  75                   CHANNEL    30.722    41  00:01      1.41    0.22    0.90
  76                   CHANNEL    30.642    41  00:00      1.93    0.10    0.46
  77                   CHANNEL    30.643    41  00:00      1.52    0.04    0.42
  78                   CHANNEL    30.615    41  00:00      4.00    5.34    0.39
  79                   CHANNEL    30.285    41  00:00      2.26    0.01    0.18
  80                   CONDUIT    17.210    41  00:00      4.93    0.56    0.56
  81                   CONDUIT    17.164    40  23:59      4.57    0.81    0.58
  82                   CONDUIT    17.067    40  23:59      4.11    0.80    0.63
  83                   CONDUIT    17.068    40  23:59      4.12    0.80    0.63
  84                   CONDUIT    16.970    40  23:59      4.10    0.80    0.63
  85                   CONDUIT     8.009    41  00:01      2.22    0.38    0.57
  86                   CONDUIT     7.697    41  00:01      2.60    0.36    0.47
  87                   CONDUIT     7.703    40  23:38      2.90    0.36    0.42
  88                   CONDUIT     7.656    40  23:38      3.09    0.36    0.40
  89                   CONDUIT     7.347    40  23:38      3.12    0.34    0.38
  90                   CONDUIT     7.317    40  21:56      3.21    0.34    0.37
  91                   CONDUIT     8.455    40  21:46      3.60    0.40    0.38
  92                   CONDUIT     8.451    40  21:46      3.45    0.40    0.39
  93                   CONDUIT     8.437    40  21:46      3.45    0.40    0.39
  94                   CONDUIT     8.432    40  21:55      3.44    0.40    0.39
  95                   CONDUIT     8.249    40  21:55      3.38    0.39    0.39
  96                   CONDUIT     8.220    40  21:55      3.39    0.39    0.39
  97                   CONDUIT     8.306    40  21:55      3.39    0.39    0.39
  98                   CONDUIT     8.573    40  21:55      3.06    1.06    0.44
  99                   CONDUIT     8.019    40  21:54      2.44    1.00    0.52
  100                  CONDUIT     8.012    40  21:54      2.26    1.00    0.55
  101                  CONDUIT     8.010    40  21:39      2.14    0.99    0.57
  102                  CONDUIT     7.944    40  21:39      2.08    0.70    0.58
  103                  CONDUIT     7.886    40  21:54      2.08    0.69    0.58
  104                  CONDUIT     7.877    40  21:54      2.09    0.69    0.58
  105                  CONDUIT     7.877    40  23:42      2.10    0.69    0.57
  106                  CONDUIT     7.837    40  23:42      2.10    0.69    0.57
  107                  CONDUIT     7.810    40  23:42      2.10    0.69    0.57
  108                  CONDUIT     7.780    40  23:42      2.10    0.68    0.57
  109                  CONDUIT     7.343    40  23:42      2.00    0.64    0.56
  110                  CONDUIT     7.343    40  23:42      2.02    0.64    0.56
  111                  CONDUIT     7.343    40  23:41      2.03    0.64    0.55
  112                  CONDUIT     7.343    40  23:41      2.05    0.64    0.55
  113                  CONDUIT     7.240    40  23:41      2.64    0.72    0.91
  114                  CONDUIT     7.240    40  23:41      2.97    0.72    0.81
  115                  CONDUIT     7.234    40  19:11      3.03    0.72    0.80
  116                  CONDUIT     7.230    40  17:01      3.04    0.72    0.79
  117                  CONDUIT     4.454    41  04:16      6.40    1.52    0.90
  118                  CONDUIT     4.456    72  11:28      5.67    1.52    1.00
  119                  CONDUIT     1.416    76  00:48      0.58    0.19    1.00
  120                  CONDUIT     1.384    75  11:21      1.24    0.18    1.00
  121                  CONDUIT     3.752    40  12:00      1.42    0.50    0.88
  122                  CONDUIT     3.720    40  12:00      1.80    0.49    0.69
  123                  CONDUIT     3.591    40  12:00      1.98    0.48    0.60
  124                  CONDUIT     5.496    40  20:16      1.83    0.46    1.00
  125                  CONDUIT     5.418    40  07:24      1.89    1.02    1.00
  126                  CONDUIT     5.417    73  00:16      1.81    1.02    1.00
  127                  CONDUIT     5.604    40  21:35      1.87    1.05    1.00
  128                  CONDUIT     5.590    72  14:31      1.86    1.05    1.00
  129                  CONDUIT     0.054    41  04:27      0.02    0.01    0.97
[...]
  53                      1.00   0.00  0.00  0.00  0.02  0.98  0.00  0.00  0.25  0.00
  54                      1.00   0.00  0.00  0.00  1.00  0.00  0.00  0.00  0.00  0.00
  55                      1.00   0.00  0.00  0.00  1.00  0.00  0.00  0.00  0.80  0.00
  56a                     1.00   0.00  0.00  0.00  0.45  0.55  0.00  0.00  0.29  0.00
  57                      1.00   0.00  0.00  0.00  1.00  0.00  0.00  0.00  0.92  0.00
  58                      1.00   0.00  0.00  0.00  1.00  0.00  0.00  0.00  0.00  0.00
  59                      1.00   0.00  0.00  0.00  1.00  0.00  0.00  0.00  0.00  0.00
  60                      1.00   0.00  0.00  0.00  1.00  0.00  0.00  0.00  0.00  0.00
  61                      1.00   0.00  0.00  0.00  1.00  0.00  0.00  0.00  0.00  0.00
  62                      1.00   0.00  0.00  0.00  0.02  0.16  0.00  0.82  0.05  0.00
  63                      1.00   0.00  0.00  0.00  0.78  0.22  0.00  0.00  0.04  0.00
  64                      1.00   0.00  0.00  0.00  0.94  0.06  0.00  0.00  0.72  0.00
  65                      1.00   0.00  0.00  0.00  0.26  0.74  0.00  0.00  0.00  0.00
  66                      1.00   0.00  0.00  0.00  1.00  0.00  0.00  0.00  0.00  0.00
  67                      1.00   0.00  0.00  0.00  1.00  0.00  0.00  0.00  0.00  0.00
  usgs_dis                1.00   0.01  0.00  0.00  0.27  0.00  0.00  0.72  0.03  0.00
  70                      1.00   0.00  0.00  0.00  0.08  0.92  0.00  0.00  0.13  0.00
  71                      1.00   0.00  0.00  0.00  1.00  0.00  0.00  0.00  0.67  0.00
  72                      1.00   0.00  0.00  0.00  1.00  0.00  0.00  0.00  0.00  0.00
  73                      1.00   0.00  0.00  0.00  1.00  0.00  0.00  0.00  0.00  0.00
  74                      1.00   0.00  0.00  0.00  1.00  0.00  0.00  0.00  0.00  0.00
  75                      1.00   0.00  0.00  0.00  1.00  0.00  0.00  0.00  0.78  0.00
  76                      1.00   0.00  0.00  0.00  1.00  0.00  0.00  0.00  0.81  0.00
  77                      1.00   0.00  0.02  0.00  0.98  0.00  0.00  0.00  0.97  0.00
  78                      1.00   0.00  0.00  0.00  0.69  0.31  0.00  0.00  0.00  0.00
  79                      1.00   0.00  0.04  0.00  0.96  0.00  0.00  0.00  0.98  0.00
  80                      1.00   0.04  0.01  0.00  0.55  0.39  0.00  0.00  0.76  0.00
  81                      1.00   0.05  0.00  0.00  0.50  0.45  0.00  0.00  0.35  0.00
  82                      1.00   0.05  0.00  0.00  0.53  0.42  0.00  0.00  0.66  0.00
  83                      1.00   0.05  0.00  0.00  0.52  0.42  0.00  0.00  0.65  0.00
  84                      1.00   0.05  0.00  0.00  0.52  0.42  0.00  0.00  0.69  0.00
  85                      1.00   0.05  0.00  0.00  0.67  0.27  0.00  0.00  0.68  0.00
  86                      1.00   0.06  0.00  0.00  0.53  0.41  0.00  0.00  0.63  0.00
  87                      1.00   0.06  0.00  0.00  0.52  0.42  0.00  0.00  0.61  0.00
  88                      1.00   0.06  0.00  0.00  0.52  0.42  0.00  0.00  0.63  0.00
  89                      1.00   0.06  0.00  0.00  0.52  0.42  0.00  0.00  0.65  0.00
  90                      1.00   0.06  0.01  0.00  0.51  0.42  0.00  0.00  0.64  0.00
  91                      1.00   0.07  0.01  0.00  0.54  0.38  0.00  0.00  0.74  0.00
  92                      1.00   0.08  0.00  0.00  0.52  0.40  0.00  0.00  0.51  0.00
  93                      1.00   0.08  0.00  0.00  0.52  0.40  0.00  0.00  0.46  0.00
  94                      1.00   0.08  0.00  0.00  0.52  0.40  0.00  0.00  0.48  0.00
  95                      1.00   0.08  0.00  0.00  0.52  0.40  0.00  0.00  0.64  0.00
  96                      1.00   0.08  0.00  0.00  0.52  0.40  0.00  0.00  0.50  0.00
  97                      1.00   0.08  0.00  0.00  0.52  0.40  0.00  0.00  0.49  0.00
  98                      1.00   0.08  0.00  0.00  0.72  0.20  0.00  0.00  0.01  0.00
  99                      1.00   0.08  0.00  0.00  0.92  0.00  0.00  0.00  0.55  0.00
  100                     1.00   0.08  0.00  0.00  0.92  0.00  0.00  0.00  0.53  0.00
  101                     1.00   0.08  0.00  0.00  0.92  0.00  0.00  0.00  0.53  0.00
  102                     1.00   0.08  0.00  0.00  0.92  0.00  0.00  0.00  0.59  0.00
  103                     1.00   0.08  0.00  0.00  0.92  0.00  0.00  0.00  0.58  0.00
  104                     1.00   0.08  0.00  0.00  0.92  0.00  0.00  0.00  0.58  0.00
  105                     1.00   0.08  0.00  0.00  0.92  0.00  0.00  0.00  0.56  0.00
  106                     1.00   0.08  0.00  0.00  0.92  0.00  0.00  0.00  0.59  0.00
  107                     1.00   0.08  0.00  0.00  0.92  0.00  0.00  0.00  0.59  0.00
  108                     1.00   0.08  0.00  0.00  0.92  0.00  0.00  0.00  0.59  0.00
  109                     1.00   0.08  0.00  0.00  0.92  0.00  0.00  0.00  0.60  0.00
  110                     1.00   0.08  0.00  0.00  0.92  0.00  0.00  0.00  0.56  0.00
  111                     1.00   0.08  0.00  0.00  0.92  0.00  0.00  0.00  0.56  0.00
  112                     1.00   0.08  0.00  0.00  0.92  0.00  0.00  0.00  0.58  0.00
  113                     1.00   0.08  0.00  0.00  0.92  0.00  0.00  0.00  0.74  0.00
  114                     1.00   0.08  0.00  0.00  0.62  0.29  0.00  0.00  0.57  0.00
  115                     1.00   0.08  0.00  0.00  0.62  0.29  0.00  0.00  0.61  0.00
  116                     1.00   0.08  0.00  0.00  0.62  0.29  0.00  0.00  0.64  0.00
  117                     1.00   0.08  0.00  0.00  0.02  0.89  0.00  0.00  0.07  0.00
  118                     1.00   0.08  0.00  0.00  0.36  0.56  0.00  0.00  0.74  0.00
  119                     1.00   0.08  0.00  0.00  0.92  0.00  0.00  0.00  0.81  0.00
  120                     1.00   0.08  0.00  0.00  0.92  0.00  0.00  0.00  0.83  0.00
  121                     1.00   0.08  0.00  0.00  0.92  0.00  0.00  0.00  0.84  0.00
  122                     1.00   0.08  0.00  0.00  0.92  0.00  0.00  0.00  0.91  0.00
  123                     1.00   0.08  0.00  0.00  0.92  0.00  0.00  0.00  0.91  0.00
  124                     1.00   0.08  0.00  0.00  0.92  0.00  0.00  0.00  0.85  0.00
  125                     1.00   0.08  0.00  0.00  0.92  0.00  0.00  0.00  0.00  0.00
  126                     1.00   0.08  0.00  0.00  0.92  0.00  0.00  0.00  0.78  0.00
  127                     1.00   0.08  0.00  0.00  0.92  0.00  0.00  0.00  0.62  0.00
  128                     1.00   0.08  0.00  0.00  0.92  0.00  0.00  0.00  0.82  0.00
  129                     1.00   0.08  0.21  0.00  0.71  0.00  0.00  0.00  0.76  0.00
  130                     1.00   0.29  0.21  0.00  0.50  0.00  0.00  0.00  0.32  0.00
  131                     1.00   0.50  0.08  0.00  0.41  0.00  0.00  0.00  0.48  0.00
  132                     1.00   0.04  0.00  0.00  0.68  0.27  0.00  0.00  0.19  0.00
  133                     1.00   0.04  0.00  0.00  0.90  0.06  0.00  0.00  0.67  0.00
  134                     1.00   0.04  0.00  0.00  0.74  0.21  0.00  0.00  0.63  0.00
  135                     1.00   0.05  0.00  0.00  0.64  0.31  0.00  0.00  0.64  0.00
  136                     1.00   0.05  0.01  0.00  0.62  0.32  0.00  0.00  0.65  0.00
  137                     1.00   0.05  0.00  0.00  0.95  0.00  0.00  0.00  0.00  0.00
  138                     1.00   0.04  0.00  0.00  0.96  0.00  0.00  0.00  0.00  0.00
  139                     1.00   0.04  0.00  0.00  0.95  0.00  0.00  0.00  0.30  0.00
  140                     1.00   0.05  0.00  0.00  0.95  0.00  0.00  0.00  0.32  0.00
  141                     1.00   0.05  0.00  0.00  0.95  0.00  0.00  0.00  0.33  0.00
  142                     1.00   0.05  0.00  0.00  0.94  0.00  0.00  0.00  0.34  0.00
  143                     1.00   0.06  0.00  0.00  0.94  0.00  0.00  0.00  0.33  0.00
  144                     1.00   0.06  0.00  0.00  0.94  0.00  0.00  0.00  0.32  0.00
  145                     1.00   0.06  0.00  0.00  0.94  0.00  0.00  0.00  0.33  0.00
  146                     1.00   0.06  0.00  0.00  0.93  0.00  0.00  0.00  0.32  0.00
  147                     1.00   0.07  0.00  0.00  0.93  0.00  0.00  0.00  0.33  0.00
  148                     1.00   0.07  0.00  0.00  0.93  0.00  0.00  0.00  0.33  0.00
  149                     1.00   0.07  0.00  0.00  0.93  0.00  0.00  0.00  0.32  0.00
  150                     1.00   0.07  0.01  0.00  0.92  0.00  0.00  0.00  0.72  0.00
  151                     1.00   0.08  0.00  0.00  0.92  0.00  0.00  0.00  0.06  0.00
  152                     1.00   0.08  0.00  0.00  0.92  0.00  0.00  0.00  0.73  0.00
  153                     1.00   0.08  0.00  0.00  0.92  0.00  0.00  0.00  0.63  0.00
  154                     1.00   0.08  0.00  0.00  0.92  0.00  0.00  0.00  0.63  0.00
  155                     1.00   0.08  0.00  0.00  0.92  0.00  0.00  0.00  0.79  0.00
  156                     1.00   0.08  0.00  0.00  0.92  0.00  0.00  0.00  0.78  0.00
  157                     1.00   0.08  0.00  0.00  0.92  0.00  0.00  0.00  0.79  0.00
  158                     1.00   0.08  0.00  0.00  0.92  0.00  0.00  0.00  0.71  0.00
  159                     1.00   0.08  0.00  0.00  0.92  0.00  0.00  0.00  0.53  0.00
  160                     1.00   0.00  0.00  0.00  1.00  0.00  0.00  0.00  0.00  0.00
  161                     1.00   0.00  0.08  0.00  0.92  0.00  0.00  0.00  0.59  0.00
  162                     1.00   0.08  0.00  0.00  0.92  0.00  0.00  0.00  0.55  0.00
  163                     1.00   0.08  0.00  0.00  0.92  0.00  0.00  0.00  0.61  0.00
  164                     1.00   0.08  0.00  0.00  0.92  0.00  0.00  0.00  0.67  0.00
  165                     1.00   0.08  0.00  0.00  0.92  0.00  0.00  0.00  0.59  0.00
  166                     1.00   0.08  0.00  0.00  0.92  0.00  0.00  0.00  0.72  0.00
  167                     1.00   0.08  0.00  0.00  0.92  0.00  0.00  0.00  0.75  0.00
  168                     1.00   0.08  0.00  0.00  0.92  0.00  0.00  0.00  0.72  0.00
  169                     1.00   0.08  0.00  0.00  0.92  0.00  0.00  0.00  0.77  0.00
  170                     1.00   0.08  0.00  0.00  0.91  0.00  0.00  0.00  0.74  0.00
  171                     1.00   0.09  0.02  0.00  0.89  0.00  0.00  0.00  0.79  0.00
  172                     1.00   0.00  0.08  0.00  0.92  0.00  0.00  0.00  0.59  0.00
  173                     1.00   0.08  0.00  0.00  0.91  0.00  0.00  0.00  0.82  0.00
  174                     1.00   0.09  0.50  0.00  0.41  0.00  0.00  0.00  0.92  0.00
  47b                     1.00   0.00  0.00  0.00  0.13  0.87  0.00  0.00  0.00  0.00
  48                      1.00   0.00  0.00  0.00  1.00  0.00  0.00  0.00  0.00  0.00
  56                      1.00   0.00  0.00  0.00  1.00  0.00  0.00  0.00  0.00  0.00
  80-a                    1.00   0.04  0.01  0.00  0.51  0.43  0.00  0.00  0.73  0.00
  81-a                    1.00   0.05  0.00  0.00  0.43  0.52  0.00  0.00  0.37  0.00
  82-a                    1.00   0.05  0.00  0.00  0.53  0.42  0.00  0.00  0.64  0.00
  83-a                    1.00   0.05  0.00  0.00  0.51  0.44  0.00  0.00  0.64  0.00
  84-a                    1.00   0.05  0.00  0.00  0.51  0.43  0.00  0.00  0.67  0.00
  85-a                    1.00   0.05  0.00  0.00  0.72  0.22  0.00  0.00  0.66  0.00
  86-a                    1.00   0.06  0.00  0.00  0.53  0.42  0.00  0.00  0.63  0.00
  87-a                    1.00   0.06  0.00  0.00  0.51  0.43  0.00  0.00  0.61  0.00
  88-a                    1.00   0.06  0.00  0.00  0.51  0.43  0.00  0.00  0.62  0.00
  89-a                    1.00   0.06  0.00  0.00  0.50  0.43  0.00  0.00  0.63  0.00
  90-a                    1.00   0.06  0.01  0.00  0.50  0.43  0.00  0.00  0.62  0.00
  69                      1.00   0.00  0.00  0.00  1.00  0.00  0.00  0.00  0.69  0.00
  
  
  *************************
  Conduit Surcharge Summary
  *************************
  
  ----------------------------------------------------------------------------
                                                           Hours        Hours 
                         --------- Hours Full --------   Above Full   Capacity
  Conduit                Both Ends  Upstream  Dnstream   Normal Flow   Limited
  ----------------------------------------------------------------------------
  2                           0.01      0.01      0.01     70.30         0.01
  3                           0.01      0.01      0.01     71.39         0.01
  4                           0.01     42.67      0.01     69.75         0.01
  5                          42.38     66.77     42.38     69.75        42.38
  6                          66.77     68.11     66.77     69.75        66.72
  7                          68.12     68.85     68.12     69.75        68.05
  8                          68.83     69.25     68.83     69.72        68.61
  9                          69.25     69.39     69.25     69.57        68.75
  10                         69.39     69.45     69.39     69.53        68.89
  11                         69.45     69.47     69.45     69.48        68.78
  12                         69.42     69.42     69.47     69.24        68.56
  13                         69.37     69.37     69.42     69.18        68.53
  14                         69.27     69.27     69.37     68.49        67.82
  15                         69.19     69.19     69.27     68.46        67.71
  16                         69.13     69.13     69.20     68.39        67.65
  17                         69.06     69.06     69.13     68.36        67.48
  18                         68.03     68.03     69.06      0.01         0.01
  19                         67.21     67.21     68.03      0.01         0.01
  20                         66.47     66.47     67.21      0.01         0.01
  21                         65.57     65.57     66.46      0.01         0.01
  22                         64.65     64.65     65.57      0.01         0.01
  23                         39.13     39.13     64.65      0.01         0.01
  24                         39.09     39.13     39.13      0.01         0.01
  25                         39.03     39.06     39.09      0.01         0.01
  26                         38.62     38.62     39.07     38.69        37.95
  27                         37.88     37.88     38.62     37.48        26.19
  28                         37.72     37.72     37.88     37.28        21.06
  29                         37.58     37.58     37.72      3.23        17.68
  30                         37.47     37.47     37.58      0.01        13.79
  31                         37.26     37.28     37.45      0.01         8.28
  32                         37.08     37.27     37.18      0.01         1.35
  33                         18.44     18.44     37.27      0.01         0.01
  34                         14.16     29.04     18.44      0.01         0.01
  35                         29.04     35.43     29.04      0.01         0.01
  36                          0.01      0.01     35.43      0.01         0.01
  47a                         0.07      8.51    114.94      0.01         0.02
  49                        352.79    354.22    356.88      0.01        17.35
  50                        341.05    344.06    345.60    397.39       336.07
  51                          0.01      0.01     51.77      0.01         0.01
  52                          0.01     40.91      0.01     40.10         0.01
  53                          0.01      0.01     17.61      0.01         0.01
  54                         38.32     38.32     76.82      0.01         0.01
  55                          0.01      0.01     18.62      0.01         0.01
  57                         16.75     16.75     37.45      0.01         0.01
  58                          0.01      0.01      0.01     34.25         0.01
  59                          0.01      0.01      0.01     17.93         0.01
  60                          0.01      0.01      0.01     99.22         0.01
  61                          0.01      0.01      0.01    475.57         0.01
  63                          0.01      0.01      0.01    214.95         0.01
  65                         16.53     39.83     16.53     13.66        16.53
  67                          0.01      0.01      0.01    478.21         0.01
  72                          0.01      0.01      0.01    457.63         0.01
  73                          0.01      0.01      0.01    525.71         0.01
  74                          0.01      0.01      0.01    590.78         0.01
  75                          0.01      0.01     11.95      0.01         0.01
  78                          0.01      0.01      0.01    402.47         0.01
  98                          0.01      0.01      0.01      7.72         0.01
  113                         0.01      0.01     12.13      0.01         0.01
  117                         0.01    205.50      0.01    266.15         0.01
  118                       205.50    252.88    205.50    266.15       205.50
  119                       178.38    178.38    252.88      0.01         0.01
  120                       151.55    151.55    178.38      0.01         0.01
  121                         0.01      0.01    151.56      0.01         0.01
  124                        93.60     93.60    252.88      0.01         0.01
  125                        41.20     41.20     93.98     34.60        32.80
  126                        38.92     38.92     41.20     34.60        33.29
  127                        37.86     37.86     38.92     34.61        34.62
  128                        37.09     37.09     37.86     34.53        34.47
  129                         0.01      0.01     37.09      0.01         0.01
  138                         0.01      0.01      0.01    712.76         0.01
  139                         0.01      0.01      0.01    712.34         0.01
  140                         0.01      0.01      0.01    712.20         0.01
  141                         0.01      0.01      0.01    712.22         0.01
  142                         0.01      0.01      0.01    712.15         0.01
  143                         0.01      0.01      0.01    712.08         0.01
  144                         0.01    598.21      0.01    711.73         0.01
  145                       598.21    602.87    598.21    710.71       598.21
  146                       602.87    606.52    602.87    710.67       602.87
  147                       606.51    609.67    606.51    710.55       606.51
  148                       609.67    613.26    609.67    710.57       609.67
  149                       612.43    612.43    613.26    596.75       596.72
  150                       428.45    428.45    612.43     19.38        19.36
  151                       318.96    318.96    428.46      0.01         0.01
  152                       518.66    518.66    520.64     82.58        80.90
  153                       518.27    518.27    518.66     82.90        84.52
  154                       518.07    518.08    518.27     82.64        78.73
  155                       517.64    517.64    518.08      0.57         4.63
  156                       517.30    517.30    517.64      0.01         0.59
  157                       516.83    516.83    517.30      0.01         0.04
  158                         0.01      0.01    516.83      0.01         0.01
  160                         0.01      0.01     35.43      0.01         0.01
  47b                       101.25    289.51    151.10      7.74        96.60
  48                        166.97    336.56    175.15      0.91       125.04
  56                          0.01     33.58      0.01    596.84         0.01
  69                         17.04     19.58     17.04      0.01        17.04
  

  Analysis begun on:  Mon Sep 26 12:13:21 2022
  Analysis ended on:  Mon Sep 26 12:14:41 2022
  Total elapsed time: 00:01:20