
  EPA STORM WATER MANAGEMENT MODEL - VERSION 5.1 (Build 5.1.13)
  --------------------------------------------------------------

  
  ERROR 209: undefined object -0.07888021 at line 16632 of [SUBAREA] section:
  ws-159 0.8791139 -0.07888021 4.619437 4 25 OUTLET 100
evation drop used for Conduit 60
  WARNING 04: minimum elevation drop used for Conduit 61
  WARNING 04: minimum elevation drop used for Conduit 63
  WARNING 04: minimum elevation drop used for Conduit 67
  WARNING 04: minimum elevation drop used for Conduit 72
  WARNING 04: minimum elevation drop used for Conduit 73
  WARNING 04: minimum elevation drop used for Conduit 74
  WARNING 04: minimum elevation drop used for Conduit 78
  WARNING 04: minimum elevation drop used for Conduit 56
  WARNING 02: maximum depth increased for Node 22
  WARNING 02: maximum depth increased for Node 23
  WARNING 02: maximum depth increased for Node 24
  WARNING 02: maximum depth increased for Node 25
  WARNING 02: maximum depth increased for Node 32
  WARNING 02: maximum depth increased for Node 33
  WARNING 02: maximum depth increased for Node 34
  WARNING 02: maximum depth increased for Node 35
  WARNING 02: maximum depth increased for Node 36
  WARNING 02: maximum depth increased for Node 37
  WARNING 02: maximum depth increased for Node 40
  WARNING 02: maximum depth increased for Node 41
  WARNING 02: maximum depth increased for Node 42
  WARNING 02: maximum depth increased for Node 43_depth
  WARNING 02: maximum depth increased for Node 44
  WARNING 02: maximum depth increased for Node 46
  WARNING 02: maximum depth increased for Node 47
  WARNING 02: maximum depth increased for Node 50
  WARNING 02: maximum depth increased for Node 51
  WARNING 02: maximum depth increased for Node 52
  WARNING 02: maximum depth increased for Node 53
  WARNING 02: maximum depth increased for Node 55
  WARNING 02: maximum depth increased for Node 56a
  WARNING 02: maximum depth increased for Node 57
  WARNING 02: maximum depth increased for Node 58
  WARNING 02: maximum depth increased for Node 59
  WARNING 02: maximum depth increased for Node 60
  WARNING 02: maximum depth increased for Node 61
  WARNING 02: maximum depth increased for Node 62
  WARNING 02: maximum depth increased for Node 63
  WARNING 02: maximum depth increased for Node 64
  WARNING 02: maximum depth increased for Node 65
  WARNING 02: maximum depth increased for Node 66
  WARNING 02: maximum depth increased for Node 67
  WARNING 02: maximum depth increased for Node 68
  WARNING 02: maximum depth increased for Node 69
  WARNING 02: maximum depth increased for Node 70
  WARNING 02: maximum depth increased for Node 71
  WARNING 02: maximum depth increased for Node 72
  WARNING 02: maximum depth increased for Node 73
  WARNING 02: maximum depth increased for Node 74
  WARNING 02: maximum depth increased for Node 75
  WARNING 02: maximum depth increased for Node 76
  WARNING 02: maximum depth increased for Node 77
  WARNING 02: maximum depth increased for Node 78
  WARNING 02: maximum depth increased for Node 79
  WARNING 02: maximum depth increased for Node 92
  WARNING 02: maximum depth increased for Node 134
  WARNING 02: maximum depth increased for Node 135
  WARNING 02: maximum depth increased for Node 136
  WARNING 02: maximum depth increased for Node 138
  WARNING 02: maximum depth increased for Node 139
  WARNING 02: maximum depth increased for Node 140
  WARNING 02: maximum depth increased for Node 141
  WARNING 02: maximum depth increased for Node 142
  WARNING 02: maximum depth increased for Node 143
  WARNING 02: maximum depth increased for Node 158
  WARNING 02: maximum depth increased for Node 163
  WARNING 02: maximum depth increased for Node 164
  WARNING 02: maximum depth increased for Node 165
  WARNING 02: maximum depth increased for Node 166
  WARNING 02: maximum depth increased for Node 167
  WARNING 02: maximum depth increased for Node 168
  WARNING 02: maximum depth increased for Node 170
  WARNING 02: maximum depth increased for Node 171
  WARNING 02: maximum depth increased for Node 173
  WARNING 02: maximum depth increased for Node 174
  
  *********************************************************
  NOTE: The summary statistics displayed in this report are
  based on results found at every computational time step,  
  not just on results from each reporting time step.
  *********************************************************
  
  ****************
  Analysis Options
  ****************
  Flow Units ............... CMS
  Process Models:
    Rainfall/Runoff ........ YES
    RDII ................... NO
    Snowmelt ............... NO
    Groundwater ............ NO
    Flow Routing ........... YES
    Ponding Allowed ........ NO
    Water Quality .......... NO
  Infiltration Method ...... CURVE_NUMBER
  Flow Routing Method ...... DYNWAVE
  Surcharge Method ......... EXTRAN
  Starting Date ............ 06/16/2022 00:00:00
  Ending Date .............. 06/17/2022 23:45:00
  Antecedent Dry Days ...... 0.0
  Report Time Step ......... 00:15:00
  Wet Time Step ............ 00:05:00
  Dry Time Step ............ 00:05:00
  Routing Time Step ........ 120.00 sec
  Variable Time Step ....... YES
  Maximum Trials ........... 8
  Number of Threads ........ 8
  Head Tolerance ........... 0.001500 m
  
  
  **************************        Volume         Depth
  Runoff Quantity Continuity     hectare-m            mm
  **************************     ---------       -------
  Total Precipitation ......        91.272        84.930
  Evaporation Loss .........         0.000         0.000
  Infiltration Loss ........        25.615        23.836
  Surface Runoff ...........        59.236        55.120
  Final Storage ............         6.658         6.195
  Continuity Error (%) .....        -0.260
  
  
  **************************        Volume        Volume
  Flow Routing Continuity        hectare-m      10^6 ltr
  **************************     ---------     ---------
  Dry Weather Inflow .......        24.923       249.229
  Wet Weather Inflow .......        59.227       592.275
  Groundwater Inflow .......         0.000         0.000
  RDII Inflow ..............         0.000         0.000
  External Inflow ..........         0.000         0.000
  External Outflow .........        68.448       684.488
  Flooding Loss ............        15.136       151.365
  Evaporation Loss .........         0.000         0.000
  Exfiltration Loss ........         0.000         0.000
  Initial Stored Volume ....         0.059         0.586
  Final Stored Volume ......         0.691         6.907
  Continuity Error (%) .....        -0.080
  
  
  ***************************
  Time-Step Critical Elements
  ***************************
  Link 47b (99.99%)
  
  
  ********************************
  Highest Flow Instability Indexes
  ********************************
  Link 53 (23)
  Link 52 (20)
  Link 54 (18)
  Link 51 (7)
  Link 63 (1)
  
  
  *************************
  Routing Time Step Summary
  *************************
  Minimum Time Step           :     0.11 sec
  Average Time Step           :     1.20 sec
  Maximum Time Step           :     4.24 sec
  Percent in Steady State     :     0.00
  Average Iterations per Step :     2.04
  Percent Not Converging      :     0.35
  
  
  ***************************
  Subcatchment Runoff Summary
  ***************************
  
  ------------------------------------------------------------------------------------------------------------------------------
                            Total      Total      Total      Total     Imperv       Perv      Total       Total     Peak  Runoff
                           Precip      Runon       Evap      Infil     Runoff     Runoff     Runoff      Runoff   Runoff   Coeff
  Subcatchment                 mm         mm         mm         mm         mm         mm         mm    10^6 ltr      CMS
  ------------------------------------------------------------------------------------------------------------------------------
  ws-1                      84.93       0.00       0.00      26.86      17.57      37.38      54.95        0.25     0.09   0.647
  ws-10                     84.93       0.00       0.00       7.90      65.43      11.16      76.59        0.21     0.12   0.902
  ws-101                    84.93       0.00       0.00      10.46      58.75      14.57      73.33        0.40     0.19   0.863
  ws-102                    84.93       0.00       0.00       9.85      60.32      13.76      74.08        0.36     0.18   0.872
  ws-103                    84.93       0.00       0.00      12.72      53.12      17.73      70.85        0.05     0.02   0.834
  ws-105                    84.93       0.00       0.00       9.72      60.64      13.59      74.23        0.24     0.12   0.874
  ws-106                    84.93       0.00       0.00       2.50      78.76       3.54      82.30        0.18     0.10   0.969
  ws-107                    84.93       0.00       0.00       3.41      76.54       4.82      81.35        0.20     0.11   0.958
  ws-108                    84.93       0.00       0.00       8.09      64.33      11.19      75.52        2.71     1.26   0.889
  ws-11                     84.93       0.00       0.00       8.69      63.06      12.09      75.15        1.12     0.54   0.885
  ws-112                    84.93       0.00       0.00      12.58      53.41      17.51      70.93        0.60     0.28   0.835
  ws-114                    84.93       0.00       0.00      21.12      40.64      21.52      62.16        0.03     0.02   0.732
  ws-115                    84.93       0.00       0.00      14.78      54.08      15.05      69.13        0.04     0.02   0.814
  ws-116                    84.93       0.00       0.00      14.32      51.27      16.88      68.15       15.63     5.91   0.802
  ws-118                    84.93       0.00       0.00      18.23      39.38      25.63      65.01        0.03     0.01   0.765
  ws-119                    84.93       0.00       0.00       8.34      63.96      11.62      75.58        0.57     0.28   0.890
  ws-12                     84.93       0.00       0.00      10.55      58.67      14.81      73.47        0.26     0.14   0.865
  ws-120                    84.93       0.00       0.00      12.21      54.49      17.11      71.61        0.14     0.07   0.843
  ws-121                    84.93       0.00       0.00      10.00      60.08      14.06      74.15        0.19     0.10   0.873
  ws-122                    84.93       0.00       0.00       9.36      61.43      13.03      74.46        0.79     0.38   0.877
  ws-123                    84.93       0.00       0.00       9.21      61.27      12.56      73.83       21.78     8.79   0.869
  ws-124                    84.93       0.00       0.00      18.91      37.56      26.26      63.82        0.48     0.18   0.751
  ws-127                    84.93       0.00       0.00      28.56      13.27      39.74      53.01        0.06     0.02   0.624
  ws-128                    84.93       0.00       0.00       1.71      72.28       2.08      74.36       50.79     2.90   0.876
  ws-13                     84.93       0.00       0.00      13.88      57.85      11.67      69.53        2.47     1.14   0.819
  ws-130                    84.93       0.00       0.00      20.92      32.58      29.22      61.80        0.06     0.03   0.728
  ws-131                    84.93       0.00       0.00      15.55      46.13      21.97      68.10        0.01     0.01   0.802
  ws-132                    84.93       0.00       0.00      12.44      53.25      16.75      70.00       13.45     5.02   0.824
  ws-136                    84.93       0.00       0.00      26.08      32.90      22.53      55.43        4.35     1.43   0.653
  ws-137                    84.93       0.00       0.00      19.60      31.32      31.68      63.00        0.14     0.06   0.742
  ws-138                    84.93       0.00       0.00      26.49      12.30      42.43      54.73        0.45     0.10   0.644
  ws-139                    84.93       0.00       0.00      26.79      11.47      43.36      54.83        0.15     0.06   0.646
  ws-14                     84.93       0.00       0.00      11.00      57.63      15.48      73.11        0.15     0.08   0.861
  ws-141                    84.93       0.00       0.00      27.31      10.02      44.13      54.15        0.09     0.03   0.638
  ws-142                    84.93       0.00       0.00      26.72      11.65      43.31      54.97        0.08     0.04   0.647
  ws-143                    84.93       0.00       0.00      25.69      14.51      41.26      55.78        0.38     0.11   0.657
  ws-144                    84.93       0.00       0.00      21.61      44.87      16.14      61.00        1.15     0.47   0.718
  ws-145                    84.93       0.00       0.00      11.46      53.77      18.69      72.46        0.07     0.04   0.853
  ws-146                    84.93       0.00       0.00      21.66      25.64      34.93      60.58        0.16     0.06   0.713
  ws-148                    84.93       0.00       0.00      28.88      30.13      21.84      51.97       42.32     5.41   0.612
  ws-149                    84.93       0.00       0.00      30.12       2.29      48.49      50.78        0.02     0.00   0.598
  ws-15                     84.93       0.00       0.00      13.34      51.71      18.73      70.44        0.15     0.07   0.829
  ws-150                    84.93       0.00       0.00      28.81      34.68      15.95      50.62       22.54     7.23   0.596
  ws-154                    84.93       0.00       0.00      18.27      34.87      29.33      64.20        0.41     0.14   0.756
  ws-155                    84.93       0.00       0.00      23.14      26.94      32.18      59.12        0.09     0.03   0.696
  ws-156                    84.93       0.00       0.00      17.85      40.18      24.74      64.93        0.34     0.13   0.764
  ws-157                    84.93       0.00       0.00      22.20      33.31      26.59      59.90        0.94     0.31   0.705
  ws-159                    84.93       0.00       0.00      31.96      25.93      23.12      49.05       36.48     5.63   0.578
  ws-16                     84.93       0.00       0.00      10.02      60.04      14.08      74.12        0.22     0.12   0.873
  ws-161                    84.93       0.00       0.00      36.33      26.53       7.72      34.25       66.85     2.27   0.403
  ws-162                    84.93       0.00       0.00      48.36       7.13      25.49      32.62        0.08     0.01   0.384
  ws-163                    84.93       0.00       0.00      43.29      15.33      22.95      38.28        0.15     0.04   0.451
  ws-165                    84.93       0.00       0.00      19.05      54.24      10.12      64.36        1.42     0.67   0.758
  ws-166                    84.93       0.00       0.00       5.23      76.47       2.81      79.28        0.76     0.41   0.933
  ws-167                    84.93       0.00       0.00      12.02      65.93       6.51      72.44        0.09     0.05   0.853
  ws-168                    84.93       0.00       0.00      15.15      60.37       8.03      68.40        1.19     0.57   0.805
  ws-169                    84.93       0.00       0.00       9.89      69.26       5.34      74.60        0.11     0.06   0.878
  ws-17                     84.93       0.00       0.00      18.11      40.11      17.02      57.12       40.03     1.76   0.673
  ws-170                    84.93       0.00       0.00      15.12      60.61       8.07      68.69        0.41     0.20   0.809
  ws-171                    84.93       0.00       0.00      16.63      57.76       8.65      66.41        7.61     3.27   0.782
  ws-172                    84.93       0.00       0.00      16.68      43.01      22.98      65.99        1.02     0.39   0.777
  ws-173                    84.93       0.00       0.00      11.93      54.42      15.88      70.30       15.49     5.55   0.828
  ws-174                    84.93       0.00       0.00       7.10      67.31       9.97      77.28        0.07     0.04   0.910
  ws-18                     84.93       0.00       0.00       9.21      62.18      13.03      75.21        0.13     0.07   0.886
  ws-19                     84.93       0.00       0.00      26.14      42.77      13.67      56.44        2.24     0.93   0.665
  ws-2                      84.93       0.00       0.00      27.17      16.75      38.12      54.87        0.14     0.07   0.646
  ws-20                     84.93       0.00       0.00      25.60      43.50      13.06      56.56        7.83     3.14   0.666
  ws-21                     84.93       0.00       0.00      35.71      27.55      18.99      46.54        0.28     0.10   0.548
  ws-22                     84.93       0.00       0.00      21.71      48.94      11.34      60.28       12.40     4.75   0.710
  ws-23                     84.93       0.00       0.00      31.35      34.49      16.51      51.00        0.37     0.14   0.600
  ws-24                     84.93       0.00       0.00      27.25      41.30      14.62      55.92        0.10     0.04   0.658
  ws-25                     84.93       0.00       0.00      25.25      44.16      13.17      57.33        1.89     0.79   0.675
  ws-26                     84.93       0.00       0.00      25.79      42.48      13.84      56.32        5.87     2.33   0.663
  ws-27                     84.93       0.00       0.00      34.88      28.91      18.59      47.50        0.22     0.08   0.559
  ws-28                     84.93       0.00       0.00      32.52      32.68      17.27      49.95        0.50     0.19   0.588
  ws-29                     84.93       0.00       0.00      41.66      17.95      22.04      39.99        0.54     0.14   0.471
  ws-3                      84.93       0.00       0.00      23.78      38.64      19.45      58.09        5.62     2.03   0.684
  ws-30                     84.93       0.00       0.00      34.73      29.06      18.28      47.34        0.72     0.25   0.557
  ws-31                     84.93       0.00       0.00      45.01      12.54      23.88      36.42        0.13     0.03   0.429
  ws-32                     84.93       0.00       0.00      43.54      20.05      17.53      37.59        3.74     1.12   0.443
  ws-35                     84.93       0.00       0.00      50.85       3.08      26.88      29.96        0.27     0.05   0.353
  ws-37                     84.93       0.00       0.00      17.49      50.97      14.74      65.71        0.63     0.28   0.774
  ws-38                     84.93       0.00       0.00      16.32      44.02      22.64      66.66        0.66     0.27   0.785
  ws-40                     84.93       0.00       0.00       8.79      63.04      12.32      75.36        0.14     0.07   0.887
  ws-41                     84.93       0.00       0.00       6.38      68.59       8.85      77.44        2.33     1.12   0.912
  ws-42                     84.93       0.00       0.00      10.30      58.96      14.26      73.23        2.15     0.99   0.862
  ws-43                     84.93       0.00       0.00      15.25      46.74      21.22      67.96        0.51     0.22   0.800
  ws-45                     84.93       0.00       0.00      21.27      42.46      18.82      61.28        9.32     3.62   0.722
  ws-46                     84.93       0.00       0.00       8.41      63.05      11.28      74.33       12.83     4.58   0.875
  ws-47                     84.93       0.00       0.00      13.84      50.41      19.37      69.78        0.46     0.22   0.822
  ws-48                     84.93       0.00       0.00       6.44      69.10       9.09      78.20        0.21     0.12   0.921
  ws-49                     84.93       0.00       0.00       3.19      76.63       4.77      81.40        0.90     0.47   0.958
  ws-50                     84.93       0.00       0.00       0.51      83.70       0.72      84.42        0.53     0.29   0.994
  ws-52                     84.93       0.00       0.00      13.23      51.85      18.46      70.32        1.17     0.55   0.828
  ws-53                     84.93       0.00       0.00       8.56      63.53      11.97      75.50        5.89     2.98   0.889
  ws-54                     84.93       0.00       0.00      12.14      54.70      17.24      71.93        0.29     0.17   0.847
  ws-55                     84.93       0.00       0.00      22.34      41.45      18.48      59.93        6.95     2.65   0.706
  ws-57                     84.93       0.00       0.00      31.21       6.57      43.06      49.62        0.19     0.04   0.584
  ws-58                     84.93       0.00       0.00      23.19      26.69      31.68      58.37        1.49     0.41   0.687
  ws-60                     84.93       0.00       0.00      16.21      44.35      22.58      66.92        0.31     0.13   0.788
  ws-61                     84.93       0.00       0.00      15.42      46.29      21.42      67.71        0.53     0.22   0.797
  ws-62                     84.93       0.00       0.00      16.63      43.36      23.24      66.61        0.21     0.10   0.784
  ws-63                     84.93       0.00       0.00      12.76      52.78      17.62      70.39        2.57     1.10   0.829
  ws-64                     84.93       0.00       0.00      22.76      44.47      15.11      59.59        5.73     2.28   0.702
  ws-65                     84.93       0.00       0.00      15.00      47.32      20.83      68.15        0.75     0.32   0.802
  ws-66                     84.93       0.00       0.00      15.84      45.23      21.99      67.23       10.12     4.20   0.792
  ws-69                     84.93       0.00       0.00      24.36      40.69      16.81      57.50        6.44     2.40   0.677
  ws-7                      84.93       0.00       0.00      22.53      28.50      31.49      59.99        0.14     0.06   0.706
  ws-70                     84.93       0.00       0.00      15.38      46.30      21.12      67.41        0.99     0.39   0.794
  ws-71                     84.93       0.00       0.00      24.89      23.41      31.33      54.74       27.44     4.88   0.645
  ws-73                     84.93       0.00       0.00      13.09      52.13      18.21      70.34        0.49     0.22   0.828
  ws-74                     84.93       0.00       0.00      29.87       9.91      39.75      49.66        1.35     0.17   0.585
  ws-75                     84.93       0.00       0.00      33.37       7.37      40.12      47.49        0.32     0.06   0.559
  ws-77                     84.93       0.00       0.00      33.79       6.36      41.01      47.37        0.11     0.03   0.558
  ws-78                     84.93       0.00       0.00      34.84      28.85      18.14      46.99        1.27     0.44   0.553
  ws-79                     84.93       0.00       0.00      24.11      26.79      31.06      57.86        0.54     0.16   0.681
  ws-8                      84.93       0.00       0.00      18.56      38.41      25.75      64.16        0.58     0.22   0.755
  ws-80                     84.93       0.00       0.00      20.73      33.05      29.10      62.15        0.04     0.02   0.732
  ws-81                     84.93       0.00       0.00      33.03      31.74      17.18      48.92        0.69     0.25   0.576
  ws-83                     84.93       0.00       0.00      28.42      39.09      14.78      53.87        0.78     0.31   0.634
  ws-84                     84.93       0.00       0.00      25.66      46.92       9.70      56.62       75.71    15.90   0.667
  ws-87                     84.93       0.00       0.00       0.87      82.74       1.23      83.97        0.17     0.09   0.989
  ws-88                     84.93       0.00       0.00      10.50      58.33      14.48      72.81        3.02     1.33   0.857
  ws-89                     84.93       0.00       0.00       0.80      83.07       1.14      84.20        0.17     0.09   0.991
  ws-9                      84.93       0.00       0.00      18.53      38.61      26.04      64.65        0.19     0.09   0.761
  ws-90                     84.93       0.00       0.00       0.84      83.11       1.19      84.30        0.03     0.01   0.993
  ws-91                     84.93       0.00       0.00       0.57      83.77       0.81      84.59        0.03     0.02   0.996
  ws-92                     84.93       0.00       0.00       2.70      78.35       3.82      82.16        0.10     0.05   0.967
  ws-93                     84.93       0.00       0.00       3.34      76.87       4.74      81.61        0.05     0.03   0.961
  ws-94                     84.93       0.00       0.00       3.22      76.51       4.49      81.00        1.26     0.65   0.954
  ws-95                     84.93       0.00       0.00       3.31      76.76       4.66      81.42        0.20     0.11   0.959
  ws-96                     84.93       0.00       0.00       1.15      82.48       1.63      84.11        0.06     0.03   0.990
  ws-97                     84.93       0.00       0.00       5.05      72.28       7.08      79.37        0.63     0.33   0.934
  ws-98                     84.93       0.00       0.00       7.01      67.44       9.82      77.26        0.59     0.31   0.910
  
  
  ******************
  Node Depth Summary
  ******************
  
  ---------------------------------------------------------------------------------
                                 Average  Maximum  Maximum  Time of Max    Reported
                                   Depth    Depth      HGL   Occurrence   Max Depth
  Node                 Type       Meters   Meters   Meters  days hr:min      Meters
  ---------------------------------------------------------------------------------
  1                    JUNCTION     0.23     1.27    35.97     0  18:41        1.22
  2                    JUNCTION     0.40     2.02    37.03     0  18:41        1.92
  3                    JUNCTION     0.42     2.11    37.44     0  18:40        2.08
  4                    JUNCTION     0.43     2.16    37.81     0  18:40        2.13
  5                    JUNCTION     0.43     2.23    38.19     0  18:40        2.15
  6                    JUNCTION     0.43     2.52    38.79     0  18:40        2.17
  7                    JUNCTION     0.43     2.50    39.09     0  18:40        2.19
  8                    JUNCTION     0.43     2.83    39.73     0  18:40        2.21
  9                    JUNCTION     0.43     2.50    39.72     0  18:40        2.23
  10                   JUNCTION     0.43     2.55    40.08     0  18:40        2.25
  11                   JUNCTION     0.43     2.50    40.35     0  18:40        2.27
  12                   JUNCTION     0.43     2.54    40.71     0  18:40        2.28
  13                   JUNCTION     0.43     2.53    41.00     0  18:40        2.29
  14                   JUNCTION     0.43     2.54    41.33     0  18:39        2.29
  15                   JUNCTION     0.43     2.54    41.65     0  18:39        2.29
  16                   JUNCTION     0.43     2.53    41.96     0  18:39        2.29
  17                   JUNCTION     0.43     2.51    42.25     0  18:39        2.29
  18                   JUNCTION     0.42     2.47    42.53     0  18:39        2.28
  19                   JUNCTION     0.41     2.41    42.79     0  18:39        2.26
  20                   JUNCTION     0.41     2.36    43.06     0  18:39        2.23
  21                   JUNCTION     0.41     2.26    43.30     0  18:40        2.18
  22                   JUNCTION     0.41     2.13    43.49     0  18:39        2.13
  23                   JUNCTION     0.41     2.10    43.79     0  18:43        2.09
  24                   JUNCTION     0.41     2.08    44.09     0  18:43        2.07
  25                   JUNCTION     0.40     2.07    44.21     0  18:43        2.06
  26                   JUNCTION     0.40     2.06    44.38     0  18:43        2.05
  27                   JUNCTION     0.40     2.02    44.67     0  18:43        2.01
  28                   JUNCTION     0.40     2.00    44.96     0  18:43        1.99
  29                   JUNCTION     0.40     1.98    45.40     0  18:43        1.97
  30                   JUNCTION     0.40     1.97    45.74     0  18:43        1.96
  31                   JUNCTION     0.40     1.97    46.06     0  18:43        1.95
  32                   JUNCTION     0.40     1.96    46.37     0  18:42        1.94
  33                   JUNCTION     0.40     1.95    46.68     0  18:42        1.93
  34                   JUNCTION     0.40     1.94    46.98     0  18:42        1.92
  35                   JUNCTION     0.40     1.94    47.32     0  18:42        1.91
  36                   JUNCTION     0.37     1.84    47.55     0  18:42        1.81
  37                   JUNCTION     0.37     1.79    47.85     0  18:41        1.75
  38                   JUNCTION     0.37     1.76    48.15     0  18:41        1.72
  39                   JUNCTION     0.35     1.93    48.38     0  18:41        1.88
  40                   JUNCTION     0.45     1.70    48.64     0  18:40        1.65
  41                   JUNCTION     0.63     1.92    48.94     0  18:40        1.87
  42                   JUNCTION     0.70     2.31    49.32     0  18:40        2.25
  43_depth             JUNCTION     0.82     2.43    49.34     0  18:40        2.37
  44                   JUNCTION     0.20     0.69    51.58     0  18:40        0.68
  45                   JUNCTION     0.54     2.11    53.16     0  18:40        2.04
  46                   JUNCTION     0.90     2.40    53.31     0  18:40        2.35
  47                   JUNCTION     0.52     1.96    53.29     0  18:40        1.91
  48                   JUNCTION     0.46     1.88    54.17     0  18:33        1.88
  49                   JUNCTION     0.43     1.83    54.19     0  18:33        1.83
  50                   JUNCTION     0.83     2.96    55.39     0  18:39        2.96
  51                   JUNCTION     0.27     0.98    55.18     0  18:41        0.98
  52                   JUNCTION     0.42     2.44    56.74     0  18:37        2.44
  53                   JUNCTION     0.55     2.25    56.83     0  18:39        2.20
  54                   JUNCTION     0.27     2.16    57.03     0  18:37        2.00
  55                   JUNCTION     0.14     1.87    57.10     0  18:39        1.79
  56a                  JUNCTION     0.22     1.68    57.18     0  18:39        1.65
  57                   JUNCTION     0.20     2.14    58.23     0  18:53        2.03
  58                   JUNCTION     0.34     2.32    58.41     0  18:53        2.20
  59                   JUNCTION     0.44     2.61    58.69     0  18:52        2.43
  60                   JUNCTION     0.68     2.92    59.01     0  18:52        2.66
  61                   JUNCTION     0.70     3.01    59.09     0  18:52        2.75
  62                   JUNCTION     0.10     1.40    59.31     0  18:52        0.96
  63                   JUNCTION     0.21     2.42    60.34     0  18:50        1.61
  64                   JUNCTION     0.14     2.13    60.28     0  18:51        1.42
  65                   JUNCTION     0.23     3.11    61.54     0  18:51        2.88
  66                   JUNCTION     0.26     3.03    61.55     0  18:52        2.78
  67                   JUNCTION     0.59     3.15    61.67     0  18:52        3.01
  68                   JUNCTION     0.37     2.27    61.80     0  18:52        2.19
  69                   JUNCTION     0.22     2.76    62.56     0  18:48        2.72
  70                   JUNCTION     0.49     2.79    62.62     0  18:48        2.76
  71                   JUNCTION     0.33     2.58    62.63     0  18:48        2.56
  72                   JUNCTION     0.51     2.68    62.73     0  18:47        2.66
  73                   JUNCTION     0.65     2.83    62.87     0  18:47        2.80
  74                   JUNCTION     0.67     2.88    62.93     0  18:47        2.86
  75                   JUNCTION     0.30     2.29    62.94     0  18:46        2.26
  76                   JUNCTION     0.27     2.07    63.03     0  18:46        2.05
  77                   JUNCTION     0.11     1.41    62.98     0  18:47        1.38
  78                   JUNCTION     0.44     1.88    63.45     0  18:46        1.84
  79                   JUNCTION     0.18     1.19    63.37     0  18:42        1.15
  80                   JUNCTION     0.14     1.12    63.74     0  18:41        1.06
  81                   JUNCTION     0.17     1.41    64.24     0  18:41        1.32
  82                   JUNCTION     0.17     1.41    64.45     0  18:41        1.32
  83                   JUNCTION     0.17     1.41    64.66     0  18:41        1.31
  84                   JUNCTION     0.17     1.41    64.87     0  18:41        1.32
  85                   JUNCTION     0.15     1.23    64.90     0  18:41        1.15
  86                   JUNCTION     0.14     1.12    65.00     0  18:41        1.05
  87                   JUNCTION     0.14     1.06    65.14     0  18:40        0.98
  88                   JUNCTION     0.14     1.01    65.31     0  18:40        0.92
  89                   JUNCTION     0.14     0.97    65.48     0  18:40        0.88
  90                   JUNCTION     0.14     0.94    65.73     0  18:40        0.86
  91                   JUNCTION     0.13     0.98    65.98     0  18:37        0.94
  92                   JUNCTION     0.13     0.99    66.19     0  18:40        0.94
  93                   JUNCTION     0.13     0.98    66.40     0  18:40        0.92
  94                   JUNCTION     0.13     0.98    66.61     0  18:39        0.91
  95                   JUNCTION     0.13     0.96    66.80     0  18:39        0.90
  96                   JUNCTION     0.13     0.95    67.00     0  18:37        0.88
  97                   JUNCTION     0.13     0.97    67.23     0  18:39        0.92
  98                   JUNCTION     0.17     1.21    67.50     0  18:42        1.06
  99                   JUNCTION     0.18     1.27    67.59     0  18:43        1.15
  100                  JUNCTION     0.19     1.32    67.67     0  18:43        1.23
  101                  JUNCTION     0.20     1.38    67.76     0  18:43        1.28
  102                  JUNCTION     0.18     1.39    67.83     0  18:43        1.29
  103                  JUNCTION     0.18     1.39    67.89     0  18:40        1.31
  104                  JUNCTION     0.18     1.40    67.95     0  18:40        1.31
  105                  JUNCTION     0.18     1.41    68.03     0  18:40        1.31
  106                  JUNCTION     0.18     1.41    68.09     0  18:41        1.32
  107                  JUNCTION     0.18     1.41    68.15     0  18:40        1.31
  108                  JUNCTION     0.18     1.41    68.21     0  18:40        1.31
  109                  JUNCTION     0.18     1.40    68.25     0  18:40        1.30
  110                  JUNCTION     0.17     1.38    68.30     0  18:40        1.28
  111                  JUNCTION     0.17     1.36    68.34     0  18:40        1.26
  112                  JUNCTION     0.17     1.35    68.41     0  18:38        1.24
  113                  JUNCTION     0.12     1.35    69.00     0  18:39        1.11
  114                  JUNCTION     0.12     1.33    69.68     0  18:39        0.98
  115                  JUNCTION     0.12     1.31    70.26     0  18:39        0.93
  116                  JUNCTION     0.12     1.29    71.10     0  18:39        0.91
  117                  JUNCTION     0.24     1.82    72.23     0  18:39        1.63
  118                  JUNCTION     0.26     2.37    73.38     0  19:00        2.37
  119                  JUNCTION     0.09     1.79    73.40     0  18:26        1.79
  120                  JUNCTION     0.07     1.21    73.42     0  18:27        1.21
  121                  JUNCTION     0.06     1.28    74.10     0  18:37        1.16
  122                  JUNCTION     0.05     1.33    74.78     0  18:35        1.09
  123                  JUNCTION     0.05     1.30    75.44     0  18:32        0.99
  124                  JUNCTION     0.10     0.96    73.48     0  19:01        0.95
  125                  JUNCTION     0.15     0.76    73.59     0  19:01        0.76
  126                  JUNCTION     0.14     0.67    73.80     0  19:01        0.66
  127                  JUNCTION     0.14     0.66    74.08     0  19:01        0.65
  128                  JUNCTION     0.14     0.65    74.41     0  19:01        0.65
  129                  JUNCTION     0.02     0.30    74.41     0  19:00        0.29
  130                  JUNCTION     0.00     0.04    74.65     0  18:36        0.04
  131                  JUNCTION     0.00     0.02    75.12     0  18:37        0.01
  132                  JUNCTION     0.15     0.93    65.87     0  18:39        0.82
  133                  JUNCTION     0.14     0.77    65.86     0  18:38        0.66
  134                  JUNCTION     0.13     0.62    65.86     0  18:38        0.52
  135                  JUNCTION     0.13     0.52    65.91     0  18:38        0.46
  136                  JUNCTION     0.13     0.48    66.02     0  18:36        0.44
  137                  JUNCTION     0.21     0.51    66.07     0  18:36        0.48
  138                  JUNCTION     0.36     0.75    66.32     0  18:40        0.74
  139                  JUNCTION     0.41     0.83    66.42     0  18:40        0.83
  140                  JUNCTION     0.44     0.89    66.49     0  18:40        0.88
  141                  JUNCTION     0.47     0.93    66.56     0  18:40        0.93
  142                  JUNCTION     0.49     0.97    66.61     0  18:40        0.97
  143                  JUNCTION     0.50     1.00    66.66     0  18:25        1.00
  144                  JUNCTION     0.52     1.08    66.75     0  18:23        1.05
  145                  JUNCTION     0.53     1.06    66.75     0  18:23        1.06
  146                  JUNCTION     0.56     1.28    66.98     0  18:23        1.25
  147                  JUNCTION     0.59     1.44    67.16     0  18:23        1.44
  148                  JUNCTION     0.63     1.78    67.52     0  18:23        1.78
  149                  JUNCTION     0.64     2.23    67.99     0  18:23        2.23
  150                  JUNCTION     0.32     3.23    69.61     0  18:34        2.83
  151                  JUNCTION     0.33     2.85    69.67     0  18:40        2.46
  152                  JUNCTION     0.31     2.50    69.92     0  18:40        2.20
  153                  JUNCTION     0.30     2.15    70.17     0  18:40        1.95
  154                  JUNCTION     0.29     1.79    70.41     0  18:32        1.69
  155                  JUNCTION     0.28     1.38    70.60     0  18:40        1.32
  156                  JUNCTION     0.27     0.92    70.74     0  18:23        0.92
  157                  JUNCTION     0.26     0.66    71.08     0  18:23        0.66
  158                  JUNCTION     0.24     0.50    71.52     0  18:24        0.50
  160                  JUNCTION     0.25     1.78    47.33     0  18:42        1.76
  161                  JUNCTION     0.20     1.69    47.33     0  18:42        1.67
  162                  JUNCTION     0.14     1.60    47.34     0  18:42        1.58
  163                  JUNCTION     0.11     1.51    47.34     0  18:42        1.49
  164                  JUNCTION     0.09     1.43    47.34     0  18:42        1.40
  165                  JUNCTION     0.08     1.34    47.35     0  18:42        1.32
  166                  JUNCTION     0.06     1.25    47.35     0  18:42        1.23
  167                  JUNCTION     0.05     1.08    47.36     0  18:42        1.06
  168                  JUNCTION     0.04     0.99    47.36     0  18:42        0.97
  169                  JUNCTION     0.04     0.91    47.37     0  18:42        0.89
  170                  JUNCTION     0.03     0.83    47.37     0  18:42        0.80
  171                  JUNCTION     0.02     0.68    47.39     0  18:41        0.66
  172                  JUNCTION     0.12     1.37    48.65     0  18:40        1.32
  173                  JUNCTION     0.03     0.65    48.67     0  18:40        0.60
  174                  JUNCTION     0.00     0.02    49.37     0  18:35        0.01
  47a                  JUNCTION     0.22     1.31    53.52     0  18:40        1.27
  47b                  JUNCTION     0.38     1.65    53.90     0  18:40        1.64
  56b                  JUNCTION     0.31     2.36    57.86     0  18:35        2.36
  159                  JUNCTION     0.24     0.50    72.01     0  18:24        0.50
  0                    OUTFALL      2.00     2.00    34.39     0  00:00        2.00
  
  
  *******************
  Node Inflow Summary
  *******************
  
  -------------------------------------------------------------------------------------------------
                                  Maximum  Maximum                  Lateral       Total        Flow
                                  Lateral    Total  Time of Max      Inflow      Inflow     Balance
                                   Inflow   Inflow   Occurrence      Volume      Volume       Error
  Node                 Type           CMS      CMS  days hr:min    10^6 ltr    10^6 ltr     Percent
  -------------------------------------------------------------------------------------------------
  1                    JUNCTION     0.087   58.724     0  18:41       0.247         684      -0.001
  2                    JUNCTION     0.068   52.341     0  18:41       0.137         684       0.023
  3                    JUNCTION     2.030   51.555     0  18:41        5.62         684       0.013
  4                    JUNCTION     0.000   50.219     0  18:40           0         679       0.014
  5                    JUNCTION     0.000   50.910     0  18:40           0         679       0.013
  6                    JUNCTION     0.000   51.133     0  18:40           0         679       0.013
  7                    JUNCTION     0.063   50.534     0  18:40       0.144         679       0.012
  8                    JUNCTION     0.221   50.948     0  18:40       0.584         679       0.013
  9                    JUNCTION     0.093   50.326     0  18:40       0.187         679       0.012
  10                   JUNCTION     0.117   50.124     0  18:40       0.214         678       0.012
  11                   JUNCTION     0.544   49.900     0  18:40        1.12         678       0.012
  12                   JUNCTION     0.135   49.412     0  18:40       0.264         677       0.012
  13                   JUNCTION     1.136   49.287     0  18:40        2.47         677       0.012
  14                   JUNCTION     0.081   48.219     0  18:39       0.153         675       0.012
  15                   JUNCTION     0.075   48.225     0  18:39       0.148         675       0.012
  16                   JUNCTION     0.116   48.285     0  18:39       0.222         675       0.012
  17                   JUNCTION     1.764   48.337     0  18:39          40         674       0.013
  18                   JUNCTION     0.071   47.739     0  18:39       0.128         634       0.013
  19                   JUNCTION     0.934   47.984     0  18:39        2.23         634       0.014
  20                   JUNCTION     3.140   47.402     0  18:39        7.83         632       0.014
  21                   JUNCTION     0.097   45.275     0  18:39       0.279         625       0.014
  22                   JUNCTION     4.751   48.987     0  18:43        12.4         627       0.015
  23                   JUNCTION     0.140   45.032     0  18:44       0.367         615       0.015
  24                   JUNCTION     0.043   44.926     0  18:43       0.095         614       0.010
  25                   JUNCTION     0.794   44.889     0  18:43        1.89         614       0.007
  26                   JUNCTION     2.329   44.330     0  18:43        5.87         613       0.012
  27                   JUNCTION     0.081   42.598     0  18:43       0.223         607       0.015
  28                   JUNCTION     0.189   42.529     0  18:43       0.499         607       0.018
  29                   JUNCTION     0.144   42.395     0  18:43        0.54         606       0.019
  30                   JUNCTION     0.251   42.285     0  18:43       0.719         606       0.016
  31                   JUNCTION     0.030   42.109     0  18:42       0.127         605       0.015
  32                   JUNCTION     1.118   42.090     0  18:42        3.74         605       0.015
  33                   JUNCTION     0.000   41.291     0  18:42           0         601       0.015
  34                   JUNCTION     0.000   41.295     0  18:42           0         602       0.016
  35                   JUNCTION     0.049   41.315     0  18:42       0.267         602       0.023
  36                   JUNCTION     0.000   35.645     0  18:41           0         523       0.017
  37                   JUNCTION     0.278   35.682     0  18:41       0.631         523       0.018
  38                   JUNCTION     0.268   35.460     0  18:41        0.66         522       0.011
  39                   JUNCTION     0.000   35.244     0  18:40           0         522       0.009
  40                   JUNCTION     0.074   35.278     0  18:40       0.143         522       0.032
  41                   JUNCTION     1.117   29.395     0  18:40        2.33         505       0.034
  42                   JUNCTION     0.990   28.386     0  18:40        2.15         503       0.042
  43_depth             JUNCTION     0.220   27.544     0  18:40        0.51         501       0.046
  44                   JUNCTION     0.000   27.335     0  18:40           0         501       0.005
  45                   JUNCTION     3.624   27.341     0  18:40        9.31         501       0.005
  46                   JUNCTION     4.578   23.950     0  18:40        12.8         492       0.025
  47                   JUNCTION     0.222   20.105     0  19:31        0.46         479       0.008
  48                   JUNCTION     0.116   20.080     0  19:31       0.211         479      -0.005
  49                   JUNCTION     0.472   38.356     0  18:39       0.903         529       0.001
  50                   JUNCTION     0.293   37.899     0  18:38       0.532         528       0.019
  51                   JUNCTION     0.000   37.630     0  18:38           0         527       0.007
  52                   JUNCTION     0.547   43.651     0  18:39        1.17         533      -0.002
  53                   JUNCTION     4.279   42.875     0  18:39         229         532       0.017
  54                   JUNCTION     0.167   38.805     0  18:40       0.295         303       0.013
  55                   JUNCTION     2.648   39.636     0  18:37        6.95         302       0.006
  56a                  JUNCTION     0.000   37.582     0  19:12           0         295       0.004
  57                   JUNCTION     0.040   52.584     0  18:53       0.189         309       0.010
  58                   JUNCTION     0.409   55.647     0  18:53        1.49         309       0.020
  59                   JUNCTION     0.000   55.348     0  18:52           0         307       0.015
  60                   JUNCTION     0.131   57.509     0  18:52       0.308         307       0.023
  61                   JUNCTION     0.222   57.680     0  18:52       0.528         306      -0.230
  62                   JUNCTION     0.096   82.566     0  18:51       0.213         306       0.063
  63                   JUNCTION     1.099   53.505     0  18:53        2.57         306       0.016
  64                   JUNCTION     2.284   46.033     0  18:52        5.73         303       0.005
  65                   JUNCTION     0.317   46.807     0  18:53       0.749         298       0.004
  66                   JUNCTION     4.199   45.153     0  18:52        10.1         297       0.006
  67                   JUNCTION     0.000   42.057     0  18:48           0         287       0.000
  68                   JUNCTION     0.000   42.046     0  18:45           0         287       0.051
  69                   JUNCTION     2.400   42.227     0  18:45        6.44         287       0.002
  70                   JUNCTION     0.390   40.848     0  18:47       0.991         281       0.017
  71                   JUNCTION     4.877   40.896     0  18:43        27.4         280       0.008
  72                   JUNCTION     0.000   36.699     0  18:43           0         252       0.019
  73                   JUNCTION     0.222   37.139     0  18:43       0.492         252       0.023
  74                   JUNCTION     0.172   37.480     0  18:43        1.35         252       0.040
  75                   JUNCTION     0.063   38.070     0  18:42       0.318         251       0.017
  76                   JUNCTION     0.000   38.681     0  18:42           0         250       0.019
  77                   JUNCTION     0.031   38.653     0  18:42       0.109         250       0.011
  78                   JUNCTION     0.439   38.746     0  18:42        1.27         250       0.023
  79                   JUNCTION     0.161   38.378     0  18:41       0.544         249       0.006
  80                   JUNCTION     0.018   38.113     0  18:41      0.0373         248       0.003
  81                   JUNCTION     0.252   38.152     0  18:41       0.695         248       0.003
  82                   JUNCTION     0.000   37.898     0  18:41           0         248       0.004
  83                   JUNCTION     0.313   37.843     0  18:41       0.781         248       0.004
  84                   JUNCTION    15.903   37.582     0  18:41        75.7         247       0.005
  85                   JUNCTION     0.000   22.803     0  18:38           0         171       0.005
  86                   JUNCTION     0.000   22.831     0  18:38           0         171       0.005
  87                   JUNCTION     0.093   22.850     0  18:38       0.168         171       0.005
  88                   JUNCTION     1.334   22.770     0  18:38        3.02         171       0.005
  89                   JUNCTION     0.093   21.479     0  18:38       0.168         168       0.006
  90                   JUNCTION     0.014   21.401     0  18:38      0.0253         168       0.006
  91                   JUNCTION     0.019   13.650     0  18:37      0.0338        87.7       0.003
  92                   JUNCTION     0.054   13.627     0  18:37      0.0986        87.7       0.003
  93                   JUNCTION     0.027   13.570     0  18:37       0.049        87.6       0.003
  94                   JUNCTION     0.645   13.535     0  18:37        1.26        87.5       0.003
  95                   JUNCTION     0.112   12.899     0  18:37       0.204        86.3       0.002
  96                   JUNCTION     0.033   12.789     0  18:37      0.0589        86.1      -0.002
  97                   JUNCTION     0.333   13.331     0  18:41       0.627          86      -0.015
  98                   JUNCTION     0.306   12.438     0  18:37       0.587        85.4       0.032
  99                   JUNCTION     0.000   12.145     0  18:38           0        84.8       0.006
  100                  JUNCTION     0.000   12.142     0  18:37           0        84.8      -0.003
  101                  JUNCTION     0.191   12.140     0  18:37       0.396        84.8       0.014
  102                  JUNCTION     0.176   11.962     0  18:39       0.356        84.4       0.005
  103                  JUNCTION     0.023   11.791     0  18:39      0.0496        84.1       0.005
  104                  JUNCTION     0.000   11.764     0  18:39           0          84       0.005
  105                  JUNCTION     0.122   11.759     0  18:39       0.245          84       0.004
  106                  JUNCTION     0.100   11.635     0  18:38       0.181        83.8       0.005
  107                  JUNCTION     0.112   11.542     0  18:38       0.203        83.6       0.005
  108                  JUNCTION     1.256   11.438     0  18:39        2.71        83.4       0.004
  109                  JUNCTION     0.000   10.229     0  18:40           0        80.7       0.006
  110                  JUNCTION     0.000   10.226     0  18:40           0        80.7       0.004
  111                  JUNCTION     0.000   10.222     0  18:40           0        80.7       0.006
  112                  JUNCTION     0.276   10.221     0  18:40       0.603        80.7       0.007
  113                  JUNCTION     0.000    9.960     0  18:40           0        80.1       0.005
  114                  JUNCTION     0.015    9.959     0  18:39      0.0311        80.1       0.004
  115                  JUNCTION     0.021    9.945     0  18:40      0.0415        80.1       0.006
  116                  JUNCTION     5.905    9.924     0  18:40        15.6        80.1       0.004
  117                  JUNCTION     0.000    4.426     0  19:10           0        64.4       0.002
  118                  JUNCTION     0.013    4.540     0  18:27       0.026        64.5       0.013
  119                  JUNCTION     0.283    4.532     0  18:27       0.574        13.1      -0.010
  120                  JUNCTION     0.071    7.979     0  18:35       0.143        22.3      -0.004
  121                  JUNCTION     0.101    7.908     0  18:35       0.193        22.2       0.004
  122                  JUNCTION     0.382    7.807     0  18:35       0.789          22       0.004
  123                  JUNCTION     8.792    8.792     0  18:40        21.8        21.8      -0.001
  124                  JUNCTION     0.182    3.016     0  19:01       0.479        51.4       0.006
  125                  JUNCTION     0.000    2.917     0  19:01           0        50.9       0.013
  126                  JUNCTION     0.000    2.917     0  19:01           0        50.9       0.010
  127                  JUNCTION     0.021    2.919     0  19:01      0.0636        50.9       0.010
  128                  JUNCTION     2.896    2.905     0  19:00        50.8        50.9       0.011
  129                  JUNCTION     0.000    0.057     0  18:37           0      0.0805       0.055
  130                  JUNCTION     0.027    0.034     0  18:40      0.0618      0.0754       0.051
  131                  JUNCTION     0.007    0.007     0  18:35      0.0136      0.0136       0.029
  132                  JUNCTION     5.019    7.868     0  18:40        13.5        80.2       0.009
  133                  JUNCTION     0.000    2.835     0  18:40           0        66.8       0.010
  134                  JUNCTION     0.000    2.820     0  18:36           0        66.8       0.010
  135                  JUNCTION     0.000    2.818     0  18:36           0        66.8       0.010
  136                  JUNCTION     1.432    2.821     0  18:35        4.35        66.8       0.014
  137                  JUNCTION     0.061    1.432     0  18:40       0.145        62.5       0.024
  138                  JUNCTION     0.104    1.372     0  18:40       0.449        62.3       0.025
  139                  JUNCTION     0.064    1.269     0  18:40       0.154        61.9       0.029
  140                  JUNCTION     0.000    1.354     0  18:24           0        61.8       0.032
  141                  JUNCTION     0.032    1.535     0  18:24      0.0866        61.8       0.036
  142                  JUNCTION     0.037    1.737     0  18:24      0.0824        61.7       0.037
  143                  JUNCTION     0.107    2.036     0  18:23       0.385        62.5       0.035
  144                  JUNCTION     0.469    2.138     0  18:23        1.15        62.2       0.035
  145                  JUNCTION     0.038    2.607     0  18:39      0.0724        79.1       0.028
  146                  JUNCTION     0.060    2.571     0  18:40       0.157        79.1       0.027
  147                  JUNCTION     0.000    3.299     0  19:51           0        85.1       0.027
  148                  JUNCTION     5.408    9.346     0  19:00        42.3         101       0.022
  149                  JUNCTION     0.004    7.165     0  18:41      0.0152        62.6       0.034
  150                  JUNCTION     7.227    7.681     0  18:40        22.5        62.7       0.006
  151                  JUNCTION     0.000    0.764     0  18:23           0        40.1       0.011
  152                  JUNCTION     0.000    0.790     0  18:23           0        40.2       0.013
  153                  JUNCTION     0.000    0.790     0  18:23           0        40.2       0.012
  154                  JUNCTION     0.143    0.790     0  18:23       0.411        40.2      -0.017
  155                  JUNCTION     0.034    0.750     0  18:23      0.0946        39.8      -0.018
  156                  JUNCTION     0.130    0.735     0  18:23       0.338        40.1      -0.017
  157                  JUNCTION     0.307    0.910     0  18:35        0.94        40.5      -0.017
  158                  JUNCTION     0.000    0.702     0  18:34           0        40.4       0.012
  160                  JUNCTION     0.000    5.939     0  18:45           0        78.7       0.039
  161                  JUNCTION     2.267    5.876     0  18:45        66.8        78.6       0.022
  162                  JUNCTION     0.014    4.358     0  18:41      0.0815        11.8       0.011
  163                  JUNCTION     0.039    4.386     0  18:41       0.153        11.7       0.010
  164                  JUNCTION     0.000    4.397     0  18:41           0        11.6       0.010
  165                  JUNCTION     0.667    4.444     0  18:41        1.42        11.6       0.008
  166                  JUNCTION     0.409    3.959     0  18:41       0.761        10.2       0.015
  167                  JUNCTION     0.046    3.695     0  18:40      0.0869         9.4       0.016
  168                  JUNCTION     0.573    3.715     0  18:40        1.19        9.31       0.009
  169                  JUNCTION     0.060    3.267     0  18:40       0.112        8.12       0.012
  170                  JUNCTION     0.201    3.421     0  18:35       0.405        8.01       0.015
  171                  JUNCTION     3.270    3.270     0  18:35        7.61        7.61       0.006
  172                  JUNCTION     0.387    5.886     0  18:40        1.02        16.6       0.025
  173                  JUNCTION     5.548    5.582     0  18:40        15.5        15.6       0.014
  174                  JUNCTION     0.037    0.037     0  18:35      0.0695      0.0695       0.008
  47a                  JUNCTION     0.000   20.100     0  19:31           0         479       0.002
  47b                  JUNCTION     0.000   20.086     0  19:31           0         479       0.002
  56b                  JUNCTION     0.000   58.085     0  18:53           0         309       0.005
  159                  JUNCTION     5.778    5.778     0  19:00        62.3        62.3      -0.003
  0                    OUTFALL      0.000   54.889     0  18:41           0         684       0.000
  
  
  **********************
  Node Surcharge Summary
  **********************
  
  Surcharging occurs when water rises above the top of the highest conduit.
  ---------------------------------------------------------------------
                                               Max. Height   Min. Depth
                                   Hours       Above Crown    Below Rim
  Node                 Type      Surcharged         Meters       Meters
  ---------------------------------------------------------------------
  4                    JUNCTION        0.03          0.032        0.000
  5                    JUNCTION        0.19          0.104        2.155
  6                    JUNCTION        0.23          0.386        1.559
  7                    JUNCTION        0.25          0.371        1.261
  8                    JUNCTION        0.26          0.703        0.615
  9                    JUNCTION        0.26          0.372        0.632
  10                   JUNCTION        0.26          0.418        0.269
  11                   JUNCTION        0.26          0.371        0.001
  12                   JUNCTION        0.26          0.415        2.717
  13                   JUNCTION        0.26          0.398        2.420
  14                   JUNCTION        0.25          0.411        2.091
  15                   JUNCTION        0.25          0.410        1.778
  16                   JUNCTION        0.25          0.400        1.468
  17                   JUNCTION        0.25          0.379        1.175
  18                   JUNCTION        0.24          0.341        0.896
  19                   JUNCTION        0.23          0.283        0.633
  20                   JUNCTION        0.22          0.233        0.367
  21                   JUNCTION        0.20          0.134        0.121
  22                   JUNCTION        0.18          0.000        0.000
  48                   JUNCTION        1.01          0.052        0.103
  49                   JUNCTION        0.98          0.014        0.000
  52                   JUNCTION        0.53          0.000        0.000
  54                   JUNCTION        0.60          0.304        0.000
  113                  JUNCTION        0.29          0.347        1.219
  114                  JUNCTION        0.22          0.330        4.297
  115                  JUNCTION        0.19          0.313        5.373
  116                  JUNCTION        0.16          0.294        5.334
  117                  JUNCTION        1.04          0.818        2.113
  118                  JUNCTION        1.20          1.373        1.191
  119                  JUNCTION        0.97          0.793        0.000
  120                  JUNCTION        0.86          0.215        0.000
  121                  JUNCTION        0.33          0.284        0.034
  122                  JUNCTION        0.26          0.329        0.626
  123                  JUNCTION        0.23          0.297        0.000
  143                  JUNCTION        2.91          0.000        0.000
  144                  JUNCTION        5.06          0.080        0.116
  145                  JUNCTION        5.22          0.062        0.000
  146                  JUNCTION        5.35          0.276        0.000
  147                  JUNCTION        5.47          0.439        0.000
  148                  JUNCTION        5.58          0.781        0.000
  149                  JUNCTION        5.56          1.234        0.000
  150                  JUNCTION        2.87          2.230        0.000
  151                  JUNCTION        0.90          1.850        0.650
  152                  JUNCTION        4.10          2.003        0.130
  153                  JUNCTION        4.10          1.651        0.015
  154                  JUNCTION        4.10          1.292        0.000
  155                  JUNCTION        4.09          0.881        0.230
  156                  JUNCTION        4.08          0.416        0.000
  157                  JUNCTION        4.07          0.157        0.000
  158                  JUNCTION        4.03          0.000        0.000
  56b                  JUNCTION        0.66          0.378        0.000
  159                  JUNCTION        3.99          0.000        0.000
  
  
  *********************
  Node Flooding Summary
  *********************
  
  Flooding refers to all water that overflows a node, whether it ponds or not.
  --------------------------------------------------------------------------
                                                             Total   Maximum
                                 Maximum   Time of Max       Flood    Ponded
                        Hours       Rate    Occurrence      Volume     Depth
  Node                 Flooded       CMS   days hr:min    10^6 ltr    Meters
  --------------------------------------------------------------------------
  4                       0.01     2.526      0  18:40       0.008     0.000
  22                      0.18     6.104      0  18:42       2.617     0.000
  49                      0.97    19.279      0  18:39      50.320     0.000
  52                      0.53     6.021      0  18:39       5.535     0.000
  54                      0.01     1.288      0  18:37       0.001     0.000
  119                     0.08     0.584      0  18:26       0.018     0.000
  120                     0.79     6.094      0  18:40       9.857     0.000
  123                     0.18     1.347      0  18:40       0.566     0.000
  143                     2.90     0.390      0  18:40       0.867     0.000
  145                     4.88     1.640      0  18:35      18.093     0.000
  146                     0.01     0.232      0  18:23       0.000     0.000
  147                     2.70     0.787      0  18:40       6.139     0.000
  148                     1.89     6.047      0  19:00      16.111     0.000
  149                     0.59     3.228      0  18:41       3.629     0.000
  150                     0.12     0.519      0  18:40       0.129     0.000
  154                     0.17     0.073      0  18:39       0.036     0.000
  156                     0.66     0.309      0  18:35       0.422     0.000
  157                     1.00     0.380      0  18:35       0.769     0.000
  158                     4.03     0.099      0  18:31       0.829     0.000
  56b                     0.45    21.547      0  18:53      13.561     0.000
  159                     3.99     5.076      0  19:00      21.859     0.000
  
  
  ***********************
  Outfall Loading Summary
  ***********************
  
  -----------------------------------------------------------
                         Flow       Avg       Max       Total
                         Freq      Flow      Flow      Volume
  Outfall Node           Pcnt       CMS       CMS    10^6 ltr
  -----------------------------------------------------------
  0                     98.61     5.368    54.889     684.485
  -----------------------------------------------------------
  System                98.61     5.368    54.889     684.485
  
  
  ********************
  Link Flow Summary
  ********************
  
  -----------------------------------------------------------------------------
                                 Maximum  Time of Max   Maximum    Max/    Max/
                                  |Flow|   Occurrence   |Veloc|    Full    Full
  Link                 Type          CMS  days hr:min     m/sec    Flow   Depth
  -----------------------------------------------------------------------------
  1                    CONDUIT    54.889     0  18:41      4.89    0.43    0.77
  2                    CONDUIT    58.642     0  18:41      5.31    1.24    0.75
  3                    CONDUIT    52.279     0  18:41      3.76    1.10    0.96
  4                    CONDUIT    49.859     0  18:41      3.43    1.05    1.00
  5                    CONDUIT    50.219     0  18:40      3.37    1.06    1.00
  6                    CONDUIT    50.910     0  18:40      3.44    1.07    1.00
  7                    CONDUIT    51.133     0  18:40      3.43    1.08    1.00
  8                    CONDUIT    50.473     0  18:40      3.38    1.06    1.00
  9                    CONDUIT    50.730     0  18:40      3.40    1.07    1.00
  10                   CONDUIT    50.234     0  18:40      3.37    1.06    1.00
  11                   CONDUIT    50.019     0  18:40      3.35    1.05    1.00
  12                   CONDUIT    49.396     0  18:40      3.31    1.04    1.00
  13                   CONDUIT    49.285     0  18:40      3.31    1.04    1.00
  14                   CONDUIT    48.228     0  18:40      3.23    1.02    1.00
  15                   CONDUIT    48.143     0  18:39      3.23    1.01    1.00
  16                   CONDUIT    48.153     0  18:39      3.23    1.02    1.00
  17                   CONDUIT    48.177     0  18:39      3.23    1.02    1.00
  18                   CONDUIT    47.329     0  18:39      3.17    1.00    1.00
  19                   CONDUIT    47.675     0  18:39      3.20    1.00    1.00
  20                   CONDUIT    47.124     0  18:39      3.16    0.99    1.00
  21                   CONDUIT    44.383     0  18:39      2.99    0.94    1.00
  22                   CONDUIT    45.182     0  18:39      3.06    0.95    1.00
  23                   CONDUIT    45.049     0  18:44      3.05    0.95    0.99
  24                   CONDUIT    44.941     0  18:44      3.08    0.95    0.98
  25                   CONDUIT    44.896     0  18:43      3.09    0.95    0.97
  26                   CONDUIT    44.342     0  18:43      3.07    0.93    0.97
  27                   CONDUIT    42.619     0  18:43      2.99    0.90    0.96
  28                   CONDUIT    42.538     0  18:43      3.02    0.90    0.94
  29                   CONDUIT    42.397     0  18:43      3.04    0.89    0.93
  30                   CONDUIT    42.281     0  18:43      3.05    0.89    0.93
  31                   CONDUIT    42.107     0  18:43      3.05    0.89    0.92
  32                   CONDUIT    42.083     0  18:42      3.06    0.89    0.92
  33                   CONDUIT    41.291     0  18:42      3.02    0.87    0.92
  34                   CONDUIT    41.291     0  18:42      3.03    0.87    0.91
  35                   CONDUIT    41.295     0  18:42      3.04    0.87    0.91
  36                   CONDUIT    35.581     0  18:41      2.76    0.75    0.89
  37                   CONDUIT    35.645     0  18:41      2.83    0.75    0.85
  38                   CONDUIT    35.447     0  18:41      2.86    0.75    0.83
  39                   CONDUIT    35.221     0  18:41      2.09    0.47    0.87
  40                   CHANNEL    35.244     0  18:40      2.57    0.60    0.85
  41                   CHANNEL    29.372     0  18:40      2.91    0.30    0.42
  42                   CONDUIT    28.350     0  18:40      2.20    2.61    0.87
  43                   CHANNEL    27.478     0  18:40      1.32    0.11    0.71
  44                   CHANNEL    27.333     0  18:40      1.62    0.04    0.46
  45                   CONDUIT    27.335     0  18:40      5.41    0.30    0.45
  46                   CHANNEL    23.963     0  18:40      2.01    0.51    0.82
  47                   CHANNEL    20.176     0  19:32      1.86    0.08    0.72
  47a                  CONDUIT    20.098     0  19:31      2.92    0.22    0.86
  49                   CHANNEL    20.079     0  19:31      2.32    0.58    1.00
  50                   CHANNEL    37.905     0  18:39      4.83    4.19    1.00
  51                   CHANNEL    37.630     0  18:39      2.13    0.15    0.65
  52                   CONDUIT    37.630     0  18:38      5.55    1.31    0.77
  53                   CHANNEL    43.125     0  18:39      3.24    0.58    0.96
  54                   CHANNEL    38.816     0  18:39      3.20    0.55    1.00
  55                   CONDUIT    38.655     0  18:40      1.93    0.35    1.00
  56a                  CHANNEL    37.781     0  19:12      4.17    0.04    0.25
  57                   CHANNEL    58.085     0  18:53      2.76    0.66    1.00
  58                   CHANNEL    52.550     0  18:53      3.08    1.77    0.28
  59                   CHANNEL    55.439     0  18:53      2.88    1.65    0.28
  60                   CHANNEL    55.348     0  18:52      2.83    2.65    0.35
  61                   CHANNEL    57.447     0  18:52      2.29   10.54    0.74
  62                   CHANNEL    57.576     0  18:52      3.91    0.05    0.36
  63                   CHANNEL    82.517     0  18:51      5.61    5.59    0.41
  64                   CHANNEL    53.054     0  18:53      4.01    0.20    0.72
  65                   CONDUIT    45.035     0  18:52      6.48    1.18    1.00
  66                   CHANNEL    46.667     0  18:53      2.53    0.18    0.71
  67                   CHANNEL    43.200     0  18:52      1.96    9.13    0.67
  usgs_dis             CHANNEL    42.057     0  18:48      1.59    0.12    0.50
  70                   CHANNEL    40.689     0  18:47      2.75    0.82    0.76
  71                   CHANNEL    40.636     0  18:47      2.12    0.39    0.88
  72                   CHANNEL    36.254     0  18:47      1.65    7.77    0.78
  73                   CHANNEL    36.699     0  18:43      1.96    9.53    0.75
  74                   CHANNEL    36.974     0  18:43      1.43   12.05    0.94
  75                   CHANNEL    37.334     0  18:43      1.79    0.27    0.92
  76                   CHANNEL    38.018     0  18:42      2.41    0.13    0.48
  77                   CHANNEL    38.681     0  18:42      1.97    0.05    0.44
  78                   CHANNEL    38.622     0  18:42      4.74    6.74    0.41
  79                   CHANNEL    38.405     0  18:42      2.50    0.02    0.19
  80                   CONDUIT    21.807     0  18:41      5.28    0.71    0.63
  81                   CONDUIT    21.142     0  18:41      4.70    0.99    0.69
  82                   CONDUIT    21.111     0  18:41      4.25    0.99    0.77
  83                   CONDUIT    21.088     0  18:41      4.25    0.99    0.77
  84                   CONDUIT    20.917     0  18:41      4.22    0.98    0.77
  85                   CONDUIT    13.032     0  18:38      2.97    0.61    0.72
  86                   CONDUIT    13.063     0  18:38      3.24    0.61    0.64
  87                   CONDUIT    13.032     0  18:38      3.43    0.61    0.59
  88                   CONDUIT    12.984     0  18:38      3.57    0.61    0.56
  89                   CONDUIT    12.239     0  18:38      3.49    0.57    0.54
  90                   CONDUIT    12.181     0  18:38      3.61    0.57    0.52
  91                   CONDUIT    13.647     0  18:37      4.07    0.64    0.52
  92                   CONDUIT    13.632     0  18:37      3.94    0.64    0.53
  93                   CONDUIT    13.576     0  18:37      3.91    0.64    0.54
  94                   CONDUIT    13.545     0  18:37      3.91    0.64    0.53
  95                   CONDUIT    12.906     0  18:37      3.79    0.61    0.53
  96                   CONDUIT    12.793     0  18:37      3.80    0.60    0.52
  97                   CONDUIT    12.759     0  18:37      3.85    0.60    0.52
  98                   CONDUIT    13.057     0  18:41      3.56    1.62    0.56
  99                   CONDUIT    12.149     0  18:38      3.05    1.51    0.67
  100                  CONDUIT    12.145     0  18:38      2.82    1.51    0.71
  101                  CONDUIT    12.142     0  18:37      2.65    1.51    0.74
  102                  CONDUIT    11.957     0  18:38      2.53    1.05    0.75
  103                  CONDUIT    11.796     0  18:39      2.46    1.04    0.76
  104                  CONDUIT    11.769     0  18:39      2.44    1.03    0.76
  105                  CONDUIT    11.764     0  18:39      2.42    1.03    0.77
  106                  CONDUIT    11.645     0  18:39      2.38    1.02    0.77
  107                  CONDUIT    11.546     0  18:39      2.35    1.01    0.77
  108                  CONDUIT    11.442     0  18:39      2.32    1.00    0.77
  109                  CONDUIT    10.235     0  18:39      2.08    0.90    0.77
  110                  CONDUIT    10.229     0  18:40      2.10    0.90    0.76
  111                  CONDUIT    10.226     0  18:40      2.11    0.90    0.75
  112                  CONDUIT    10.222     0  18:40      2.14    0.90    0.74
  113                  CONDUIT     9.960     0  18:40      3.32    0.99    1.00
  114                  CONDUIT     9.960     0  18:40      3.32    0.99    1.00
  115                  CONDUIT     9.944     0  18:39      3.31    0.99    1.00
  116                  CONDUIT     9.924     0  18:40      3.31    0.99    1.00
  117                  CONDUIT     4.426     0  19:10      6.39    1.51    1.00
  118                  CONDUIT     4.426     0  19:10      5.63    1.51    1.00
  119                  CONDUIT     4.531     0  18:27      1.51    0.60    1.00
  120                  CONDUIT     4.303     0  18:27      1.96    0.57    1.00
  121                  CONDUIT     7.908     0  18:35      2.64    1.05    1.00
  122                  CONDUIT     7.807     0  18:35      2.60    1.03    1.00
  123                  CONDUIT     7.506     0  18:43      2.50    0.99    1.00
  124                  CONDUIT     3.017     0  19:01      1.35    0.25    0.98
  125                  CONDUIT     2.918     0  19:01      1.86    0.55    0.86
  126                  CONDUIT     2.917     0  19:01      1.46    0.55    0.72
  127                  CONDUIT     2.917     0  19:01      1.46    0.55    0.66
  128                  CONDUIT     2.903     0  19:01      1.48    0.54    0.66
  129                  CONDUIT     0.030     0  18:36      0.05    0.01    0.48
  130                  CONDUIT     0.034     0  18:36      0.28    0.01    0.16
  131                  CONDUIT     0.007     0  18:37      0.09    0.00    0.03
  132                  CONDUIT     7.895     0  18:39      3.25    0.43    0.46
  133                  CONDUIT     2.854     0  18:40      1.70    0.15    0.42
  134                  CONDUIT     2.835     0  18:40      1.80    0.15    0.34
  135                  CONDUIT     2.820     0  18:36      2.00    0.15    0.28
  136                  CONDUIT     2.818     0  18:36      2.11    0.15    0.24
  137                  CONDUIT     1.446     0  18:41      1.40    0.25    0.24
  138                  CONDUIT     1.372     0  18:40      1.15    1.95    0.63
  139                  CONDUIT     1.268     0  18:40      0.82    1.80    0.79
  140                  CONDUIT     1.242     0  18:25      0.83    1.76    0.86
  141                  CONDUIT     1.354     0  18:24      0.87    1.92    0.91
  142                  CONDUIT     1.527     0  18:24      0.91    2.17    0.95
  143                  CONDUIT     1.729     0  18:24      0.96    2.45    0.99
  144                  CONDUIT     1.994     0  18:23      1.05    2.83    1.00
  145                  CONDUIT     1.911     0  18:23      0.98    2.71    1.00
  146                  CONDUIT     2.572     0  18:40      1.29    3.65    1.00
  147                  CONDUIT     2.540     0  21:00      1.27    3.61    1.00
  148                  CONDUIT     3.299     0  19:51      1.65    4.68    1.00
  149                  CONDUIT     3.938     0  18:31      1.97    5.59    1.00
  150                  CONDUIT     7.161     0  18:39      3.58    1.61    1.00
  151                  CONDUIT     0.705     0  22:06      1.57    0.50    1.00
  152                  CONDUIT     0.764     0  18:23      1.53    1.09    1.00
  153                  CONDUIT     0.790     0  18:23      1.60    1.13    1.00
[...]
  50                      1.00   0.00  0.00  0.00  0.11  0.89  0.00  0.00  0.00  0.00
  51                      1.00   0.00  0.00  0.00  1.00  0.00  0.00  0.00  1.00  0.00
  52                      1.00   0.00  0.00  0.00  0.63  0.37  0.00  0.00  0.00  0.00
  53                      1.00   0.00  0.00  0.00  0.03  0.97  0.00  0.00  0.10  0.00
  54                      1.00   0.00  0.00  0.00  1.00  0.00  0.00  0.00  0.00  0.00
  55                      1.00   0.00  0.03  0.00  0.97  0.00  0.00  0.00  0.89  0.00
  56a                     1.00   0.03  0.00  0.00  0.02  0.95  0.00  0.00  0.17  0.00
  57                      1.00   0.03  0.00  0.00  0.97  0.00  0.00  0.00  0.94  0.00
  58                      1.00   0.03  0.00  0.00  0.97  0.00  0.00  0.00  0.00  0.00
  59                      1.00   0.03  0.00  0.00  0.97  0.00  0.00  0.00  0.00  0.00
  60                      1.00   0.03  0.00  0.00  0.97  0.00  0.00  0.00  0.00  0.00
  61                      1.00   0.02  0.00  0.00  0.98  0.00  0.00  0.00  0.00  0.00
  62                      1.00   0.02  0.00  0.00  0.03  0.09  0.00  0.86  0.02  0.00
  63                      1.00   0.02  0.00  0.00  0.76  0.22  0.00  0.00  0.00  0.00
  64                      1.00   0.02  0.00  0.00  0.92  0.05  0.00  0.00  0.83  0.00
  65                      1.00   0.02  0.00  0.00  0.00  0.97  0.00  0.00  0.00  0.00
  66                      1.00   0.02  0.00  0.00  0.98  0.00  0.00  0.00  0.00  0.00
  67                      1.00   0.02  0.00  0.00  0.98  0.00  0.00  0.00  0.00  0.00
  usgs_dis                1.00   0.02  0.00  0.00  0.24  0.00  0.00  0.74  0.02  0.00
  70                      1.00   0.02  0.00  0.00  0.05  0.93  0.00  0.00  0.00  0.00
  71                      1.00   0.02  0.00  0.00  0.98  0.00  0.00  0.00  0.46  0.00
  72                      1.00   0.01  0.00  0.00  0.99  0.00  0.00  0.00  0.00  0.00
  73                      1.00   0.01  0.00  0.00  0.99  0.00  0.00  0.00  0.00  0.00
  74                      1.00   0.01  0.00  0.00  0.99  0.00  0.00  0.00  0.00  0.00
  75                      1.00   0.01  0.00  0.00  0.99  0.00  0.00  0.00  0.90  0.00
  76                      1.00   0.01  0.00  0.00  0.99  0.00  0.00  0.00  0.90  0.00
  77                      1.00   0.01  0.00  0.00  0.99  0.00  0.00  0.00  0.97  0.00
  78                      1.00   0.01  0.00  0.00  0.69  0.30  0.00  0.00  0.00  0.00
  79                      1.00   0.01  0.00  0.00  0.99  0.00  0.00  0.00  0.97  0.00
  80                      1.00   0.01  0.00  0.00  0.12  0.87  0.00  0.00  0.88  0.00
  81                      1.00   0.01  0.00  0.00  0.00  0.99  0.00  0.00  0.19  0.00
  82                      1.00   0.01  0.00  0.00  0.00  0.99  0.00  0.00  0.96  0.00
  83                      1.00   0.01  0.00  0.00  0.00  0.99  0.00  0.00  0.58  0.00
  84                      1.00   0.01  0.00  0.00  0.00  0.99  0.00  0.00  0.57  0.00
  85                      1.00   0.01  0.00  0.00  0.08  0.92  0.00  0.00  0.42  0.00
  86                      1.00   0.01  0.00  0.00  0.02  0.97  0.00  0.00  0.45  0.00
  87                      1.00   0.01  0.00  0.00  0.00  0.99  0.00  0.00  0.50  0.00
  88                      1.00   0.01  0.00  0.00  0.00  0.99  0.00  0.00  0.55  0.00
  89                      1.00   0.01  0.00  0.00  0.00  0.99  0.00  0.00  0.53  0.00
  90                      1.00   0.01  0.00  0.00  0.00  0.99  0.00  0.00  0.57  0.00
  91                      1.00   0.01  0.33  0.00  0.00  0.66  0.00  0.00  0.40  0.00
  92                      1.00   0.33  0.00  0.00  0.00  0.66  0.00  0.00  0.57  0.00
  93                      1.00   0.33  0.00  0.00  0.00  0.66  0.00  0.00  0.57  0.00
  94                      1.00   0.33  0.00  0.00  0.00  0.66  0.00  0.00  0.56  0.00
  95                      1.00   0.33  0.00  0.00  0.00  0.66  0.00  0.00  0.56  0.00
  96                      1.00   0.33  0.00  0.00  0.00  0.66  0.00  0.00  0.55  0.00
  97                      1.00   0.33  0.00  0.00  0.00  0.66  0.00  0.00  0.55  0.00
  98                      1.00   0.33  0.00  0.00  0.47  0.19  0.00  0.00  0.00  0.00
  99                      1.00   0.33  0.00  0.00  0.67  0.00  0.00  0.00  0.00  0.00
  100                     1.00   0.33  0.00  0.00  0.67  0.00  0.00  0.00  0.00  0.00
  101                     1.00   0.33  0.00  0.00  0.67  0.00  0.00  0.00  0.01  0.00
  102                     1.00   0.33  0.00  0.00  0.67  0.00  0.00  0.00  0.28  0.00
  103                     1.00   0.33  0.00  0.00  0.67  0.00  0.00  0.00  0.30  0.00
  104                     1.00   0.33  0.00  0.00  0.67  0.00  0.00  0.00  0.32  0.00
  105                     1.00   0.33  0.00  0.00  0.67  0.00  0.00  0.00  0.36  0.00
  106                     1.00   0.33  0.00  0.00  0.67  0.00  0.00  0.00  0.40  0.00
  107                     1.00   0.33  0.00  0.00  0.67  0.00  0.00  0.00  0.43  0.00
  108                     1.00   0.33  0.00  0.00  0.67  0.00  0.00  0.00  0.48  0.00
  109                     1.00   0.33  0.00  0.00  0.67  0.00  0.00  0.00  0.39  0.00
  110                     1.00   0.33  0.00  0.00  0.67  0.00  0.00  0.00  0.48  0.00
  111                     1.00   0.33  0.00  0.00  0.67  0.00  0.00  0.00  0.52  0.00
  112                     1.00   0.33  0.00  0.00  0.67  0.00  0.00  0.00  0.54  0.00
  113                     1.00   0.33  0.00  0.00  0.66  0.01  0.00  0.00  0.58  0.00
  114                     1.00   0.33  0.00  0.00  0.38  0.28  0.00  0.00  0.57  0.00
  115                     1.00   0.33  0.00  0.00  0.38  0.29  0.00  0.00  0.58  0.00
  116                     1.00   0.33  0.00  0.00  0.38  0.29  0.00  0.00  0.59  0.00
  117                     1.00   0.33  0.00  0.00  0.01  0.66  0.00  0.00  0.05  0.00
  118                     1.00   0.33  0.00  0.00  0.05  0.62  0.00  0.00  0.57  0.00
  119                     1.00   0.33  0.00  0.00  0.67  0.00  0.00  0.00  0.58  0.00
  120                     1.00   0.33  0.00  0.00  0.67  0.00  0.00  0.00  0.59  0.00
  121                     1.00   0.33  0.00  0.00  0.67  0.00  0.00  0.00  0.58  0.00
  122                     1.00   0.33  0.00  0.00  0.67  0.00  0.00  0.00  0.60  0.00
  123                     1.00   0.33  0.00  0.00  0.67  0.00  0.00  0.00  0.60  0.00
  124                     1.00   0.33  0.00  0.00  0.66  0.00  0.00  0.00  0.60  0.00
  125                     1.00   0.33  0.00  0.00  0.66  0.00  0.00  0.00  0.00  0.00
  126                     1.00   0.34  0.00  0.00  0.66  0.00  0.00  0.00  0.56  0.00
  127                     1.00   0.33  0.00  0.00  0.67  0.00  0.00  0.00  0.59  0.00
  128                     1.00   0.33  0.00  0.00  0.67  0.00  0.00  0.00  0.60  0.00
  129                     1.00   0.33  0.00  0.00  0.66  0.00  0.00  0.00  0.54  0.00
  130                     1.00   0.33  0.00  0.00  0.67  0.00  0.00  0.00  0.59  0.00
  131                     1.00   0.33  0.22  0.00  0.45  0.00  0.00  0.00  0.62  0.00
  132                     1.00   0.01  0.00  0.00  0.08  0.92  0.00  0.00  0.19  0.00
  133                     1.00   0.01  0.00  0.00  0.83  0.16  0.00  0.00  0.63  0.00
  134                     1.00   0.01  0.00  0.00  0.72  0.27  0.00  0.00  0.38  0.00
  135                     1.00   0.01  0.00  0.00  0.70  0.29  0.00  0.00  0.49  0.00
  136                     1.00   0.01  0.00  0.00  0.69  0.31  0.00  0.00  0.50  0.00
  137                     1.00   0.00  0.00  0.00  1.00  0.00  0.00  0.00  0.00  0.00
  138                     1.00   0.00  0.00  0.00  1.00  0.00  0.00  0.00  0.00  0.00
  139                     1.00   0.00  0.00  0.00  1.00  0.00  0.00  0.00  0.00  0.00
  140                     1.00   0.00  0.00  0.00  1.00  0.00  0.00  0.00  0.00  0.00
  141                     1.00   0.00  0.00  0.00  1.00  0.00  0.00  0.00  0.00  0.00
  142                     1.00   0.00  0.00  0.00  1.00  0.00  0.00  0.00  0.00  0.00
  143                     1.00   0.00  0.00  0.00  1.00  0.00  0.00  0.00  0.00  0.00
  144                     1.00   0.00  0.00  0.00  1.00  0.00  0.00  0.00  0.00  0.00
  145                     1.00   0.00  0.00  0.00  1.00  0.00  0.00  0.00  0.00  0.00
  146                     1.00   0.00  0.00  0.00  1.00  0.00  0.00  0.00  0.00  0.00
  147                     1.00   0.00  0.00  0.00  1.00  0.00  0.00  0.00  0.00  0.00
  148                     1.00   0.00  0.00  0.00  1.00  0.00  0.00  0.00  0.00  0.00
  149                     1.00   0.00  0.00  0.00  1.00  0.00  0.00  0.00  0.00  0.00
  150                     1.00   0.00  0.00  0.00  0.99  0.01  0.00  0.00  0.85  0.00
  151                     1.00   0.00  0.00  0.00  1.00  0.00  0.00  0.00  0.04  0.00
  152                     1.00   0.00  0.00  0.00  1.00  0.00  0.00  0.00  0.91  0.00
  153                     1.00   0.00  0.00  0.00  1.00  0.00  0.00  0.00  0.18  0.00
  154                     1.00   0.00  0.00  0.00  1.00  0.00  0.00  0.00  0.18  0.00
  155                     1.00   0.00  0.00  0.00  1.00  0.00  0.00  0.00  0.39  0.00
  156                     1.00   0.00  0.00  0.00  1.00  0.00  0.00  0.00  0.21  0.00
  157                     1.00   0.00  0.00  0.00  1.00  0.00  0.00  0.00  0.36  0.00
  158                     1.00   0.00  0.00  0.00  1.00  0.00  0.00  0.00  0.53  0.00
  159                     1.00   0.00  0.00  0.00  1.00  0.00  0.00  0.00  0.16  0.00
  160                     1.00   0.00  0.00  0.00  1.00  0.00  0.00  0.00  0.00  0.00
  161                     1.00   0.00  0.33  0.00  0.67  0.00  0.00  0.00  0.34  0.00
  162                     1.00   0.33  0.00  0.00  0.67  0.00  0.00  0.00  0.17  0.00
  163                     1.00   0.33  0.00  0.00  0.67  0.00  0.00  0.00  0.41  0.00
  164                     1.00   0.33  0.00  0.00  0.66  0.00  0.00  0.00  0.49  0.00
  165                     1.00   0.33  0.00  0.00  0.67  0.00  0.00  0.00  0.51  0.00
  166                     1.00   0.33  0.00  0.00  0.67  0.00  0.00  0.00  0.55  0.00
  167                     1.00   0.33  0.00  0.00  0.67  0.00  0.00  0.00  0.57  0.00
  168                     1.00   0.33  0.00  0.00  0.67  0.00  0.00  0.00  0.56  0.00
  169                     1.00   0.33  0.00  0.00  0.67  0.00  0.00  0.00  0.58  0.00
  170                     1.00   0.33  0.00  0.00  0.67  0.00  0.00  0.00  0.57  0.00
  171                     1.00   0.33  0.00  0.00  0.67  0.00  0.00  0.00  0.59  0.00
  172                     1.00   0.00  0.33  0.00  0.67  0.00  0.00  0.00  0.30  0.00
  173                     1.00   0.33  0.00  0.00  0.67  0.00  0.00  0.00  0.59  0.00
  174                     1.00   0.33  0.21  0.00  0.46  0.00  0.00  0.00  0.62  0.00
  47b                     1.00   0.00  0.00  0.00  0.10  0.90  0.00  0.00  0.00  0.00
  48                      1.00   0.00  0.00  0.00  1.00  0.00  0.00  0.00  0.00  0.00
  56                      1.00   0.03  0.00  0.00  0.97  0.00  0.00  0.00  0.00  0.00
  80-a                    1.00   0.01  0.00  0.00  0.00  0.99  0.00  0.00  0.86  0.00
  81-a                    1.00   0.01  0.00  0.00  0.00  0.99  0.00  0.00  0.27  0.00
  82-a                    1.00   0.01  0.00  0.00  0.00  0.99  0.00  0.00  0.95  0.00
  83-a                    1.00   0.01  0.00  0.00  0.00  0.99  0.00  0.00  0.58  0.00
  84-a                    1.00   0.01  0.00  0.00  0.00  0.99  0.00  0.00  0.57  0.00
  85-a                    1.00   0.01  0.00  0.00  0.09  0.90  0.00  0.00  0.33  0.00
  86-a                    1.00   0.01  0.00  0.00  0.03  0.96  0.00  0.00  0.43  0.00
  87-a                    1.00   0.01  0.00  0.00  0.00  0.99  0.00  0.00  0.50  0.00
  88-a                    1.00   0.01  0.00  0.00  0.00  0.99  0.00  0.00  0.54  0.00
  89-a                    1.00   0.01  0.00  0.00  0.00  0.99  0.00  0.00  0.50  0.00
  90-a                    1.00   0.01  0.00  0.00  0.00  0.99  0.00  0.00  0.57  0.00
  69                      1.00   0.02  0.00  0.00  0.98  0.00  0.00  0.00  0.75  0.00
  
  
  *************************
  Conduit Surcharge Summary
  *************************
  
  ----------------------------------------------------------------------------
                                                           Hours        Hours 
                         --------- Hours Full --------   Above Full   Capacity
  Conduit                Both Ends  Upstream  Dnstream   Normal Flow   Limited
  ----------------------------------------------------------------------------
  2                           0.01      0.01      0.01      0.24         0.01
  3                           0.01      0.01      0.01      0.28         0.01
  4                           0.01      0.03      0.01      0.26         0.01
  5                           0.03      0.19      0.03      0.27         0.03
  6                           0.19      0.23      0.19      0.27         0.19
  7                           0.23      0.25      0.23      0.27         0.23
  8                           0.25      0.26      0.25      0.26         0.25
  9                           0.26      0.26      0.26      0.26         0.25
  10                          0.26      0.26      0.26      0.26         0.25
  11                          0.26      0.26      0.26      0.26         0.25
  12                          0.26      0.26      0.26      0.25         0.24
  13                          0.25      0.26      0.26      0.25         0.23
  14                          0.25      0.25      0.26      0.20         0.19
  15                          0.25      0.25      0.25      0.18         0.18
  16                          0.25      0.25      0.25      0.14         0.16
  17                          0.24      0.25      0.25      0.12         0.14
  18                          0.24      0.24      0.25      0.01         0.01
  19                          0.23      0.23      0.24      0.01         0.01
  20                          0.22      0.22      0.23      0.01         0.01
  21                          0.20      0.20      0.22      0.01         0.01
  22                          0.18      0.18      0.20      0.01         0.01
  23                          0.01      0.01      0.18      0.01         0.01
  42                          0.01      0.01      0.01      2.20         0.01
  47a                         0.01      0.01      0.37      0.01         0.01
  49                          1.41      1.41      1.55      0.01         0.01
  50                          0.98      1.23      0.98      2.53         0.98
  52                          0.01      0.76      0.01      0.77         0.01
  53                          0.01      0.01      0.53      0.01         0.01
  54                          0.73      0.73      0.85      0.01         0.01
  55                          0.01      0.01      0.60      0.01         0.01
  57                          0.42      0.42      0.73      0.01         0.01
  58                          0.01      0.01      0.01      0.66         0.01
  59                          0.01      0.01      0.01      0.59         0.01
  60                          0.01      0.01      0.01      0.87         0.01
  61                          0.01      0.01      0.01      3.32         0.01
  63                          0.01      0.01      0.01      1.21         0.01
  65                          0.05      0.68      0.05      0.43         0.05
  67                          0.01      0.01      0.01      3.54         0.01
  72                          0.01      0.01      0.01      3.24         0.01
  73                          0.01      0.01      0.01      3.77         0.01
  74                          0.01      0.01      0.01      4.66         0.01
  75                          0.01      0.01      0.24      0.01         0.01
  78                          0.01      0.01      0.01      2.71         0.01
  98                          0.01      0.01      0.01      0.55         0.01
  99                          0.01      0.01      0.01      0.53         0.01
  100                         0.01      0.01      0.01      0.53         0.01
  101                         0.01      0.01      0.01      0.53         0.01
  102                         0.01      0.01      0.01      0.14         0.01
  103                         0.01      0.01      0.01      0.13         0.01
  104                         0.01      0.01      0.01      0.12         0.01
  105                         0.01      0.01      0.01      0.12         0.01
  106                         0.01      0.01      0.01      0.10         0.01
  107                         0.01      0.01      0.01      0.09         0.01
  108                         0.01      0.01      0.01      0.07         0.01
  113                         0.29      0.29      0.51      0.01         0.01
  114                         0.22      0.22      0.29      0.01         0.01
  115                         0.19      0.19      0.22      0.01         0.01
  116                         0.16      0.16      0.19      0.01         0.01
  117                         0.16      1.04      0.16      1.35         0.16
  118                         1.04      1.20      1.04      1.35         1.04
  119                         0.97      0.97      1.20      0.01         0.01
  120                         0.86      0.86      0.97      0.01         0.01
  121                         0.33      0.33      0.86      0.21         0.20
  122                         0.26      0.26      0.33      0.20         0.20
  123                         0.23      0.23      0.26      0.01         0.01
  124                         0.01      0.01      1.20      0.01         0.01
  138                         0.01      0.01      0.01      7.06         0.01
  139                         0.01      0.01      0.01      7.05         0.01
  140                         0.01      0.01      0.01      7.05         0.01
  141                         0.01      0.01      0.01      7.04         0.01
  142                         0.01      0.01      0.01      7.04         0.01
  143                         0.01      0.01      0.01      7.04         0.01
  144                         0.01      5.06      0.01      7.03         0.01
  145                         5.06      5.22      5.06      7.01         5.06
  146                         5.22      5.35      5.22      7.00         5.22
  147                         5.35      5.47      5.35      7.00         5.35
  148                         5.47      5.58      5.47      6.99         5.47
  149                         5.55      5.56      5.58      4.86         4.82
  150                         2.87      2.87      5.56      0.43         0.43
  151                         0.90      0.90      2.87      0.01         0.01
  152                         4.10      4.10      4.11      0.86         0.86
  153                         4.10      4.10      4.10      0.84         0.84
  154                         4.10      4.10      4.10      0.83         0.82
  155                         4.09      4.09      4.10      0.44         0.45
  156                         4.08      4.08      4.09      0.34         0.34
  157                         4.07      4.07      4.08      0.01         0.01
  158                         0.01      0.01      4.07      0.01         0.01
  47b                         0.01      1.14      0.01      0.01         0.01
  48                          0.01      1.01      0.01      0.01         0.01
  56                          0.01      0.66      0.01      4.75         0.01
  69                          0.52      0.63      0.52      0.01         0.52
  

  Analysis begun on:  Tue Feb 21 17:06:57 2023
  Analysis ended on:  Tue Feb 21 17:07:08 2023
  Total elapsed time: 00:00:11