
  EPA STORM WATER MANAGEMENT MODEL - VERSION 5.1 (Build 5.1.13)
  --------------------------------------------------------------

  WARNING 09: time series interval greater than recording interval for Rain Gage 1
  WARNING 01: wet weather time step reduced to recording interval for Rain Gage 1
  WARNING 04: minimum elevation drop used for Conduit 58
  WARNING 04: minimum elevation drop used for Conduit 59
  WARNING 04: minimum elevation drop used for Conduit 60
  WARNING 04: minimum elevation drop used for Conduit 61
  WARNING 04: minimum elevation drop used for Conduit 63
  WARNING 04: minimum elevation drop used for Conduit 67
  WARNING 04: minimum elevation drop used for Conduit 72
  WARNING 04: minimum elevation drop used for Conduit 73
  WARNING 04: minimum elevation drop used for Conduit 74
  WARNING 04: minimum elevation drop used for Conduit 78
  WARNING 04: minimum elevation drop used for Conduit 56
  WARNING 02: maximum depth increased for Node 22
  WARNING 02: maximum depth increased for Node 23
  WARNING 02: maximum depth increased for Node 24
  WARNING 02: maximum depth increased for Node 25
  WARNING 02: maximum depth increased for Node 32
  WARNING 02: maximum depth increased for Node 33
  WARNING 02: maximum depth increased for Node 34
  WARNING 02: maximum depth increased for Node 35
  WARNING 02: maximum depth increased for Node 36
  WARNING 02: maximum depth increased for Node 37
  WARNING 02: maximum depth increased for Node 40
  WARNING 02: maximum depth increased for Node 41
  WARNING 02: maximum depth increased for Node 42
  WARNING 02: maximum depth increased for Node 43
  WARNING 02: maximum depth increased for Node 44
  WARNING 02: maximum depth increased for Node 46
  WARNING 02: maximum depth increased for Node 47
  WARNING 02: maximum depth increased for Node 50
  WARNING 02: maximum depth increased for Node 51
  WARNING 02: maximum depth increased for Node 52
  WARNING 02: maximum depth increased for Node 53
  WARNING 02: maximum depth increased for Node 55
  WARNING 02: maximum depth increased for Node 56a
  WARNING 02: maximum depth increased for Node 57
  WARNING 02: maximum depth increased for Node 58
  WARNING 02: maximum depth increased for Node 59
  WARNING 02: maximum depth increased for Node 60
  WARNING 02: maximum depth increased for Node 61
  WARNING 02: maximum depth increased for Node 62
  WARNING 02: maximum depth increased for Node 63
  WARNING 02: maximum depth increased for Node 64
  WARNING 02: maximum depth increased for Node 65
  WARNING 02: maximum depth increased for Node 66
  WARNING 02: maximum depth increased for Node 67
  WARNING 02: maximum depth increased for Node 68
  WARNING 02: maximum depth increased for Node 69
  WARNING 02: maximum depth increased for Node 70
  WARNING 02: maximum depth increased for Node 71
  WARNING 02: maximum depth increased for Node 72
  WARNING 02: maximum depth increased for Node 73
  WARNING 02: maximum depth increased for Node 74
  WARNING 02: maximum depth increased for Node 75
  WARNING 02: maximum depth increased for Node 76
  WARNING 02: maximum depth increased for Node 77
  WARNING 02: maximum depth increased for Node 78
  WARNING 02: maximum depth increased for Node 79
  WARNING 02: maximum depth increased for Node 92
  WARNING 02: maximum depth increased for Node 134
  WARNING 02: maximum depth increased for Node 135
  WARNING 02: maximum depth increased for Node 136
  WARNING 02: maximum depth increased for Node 138
  WARNING 02: maximum depth increased for Node 139
  WARNING 02: maximum depth increased for Node 140
  WARNING 02: maximum depth increased for Node 141
  WARNING 02: maximum depth increased for Node 142
  WARNING 02: maximum depth increased for Node 143
  WARNING 02: maximum depth increased for Node 158
  WARNING 02: maximum depth increased for Node 163
  WARNING 02: maximum depth increased for Node 164
  WARNING 02: maximum depth increased for Node 165
  WARNING 02: maximum depth increased for Node 166
  WARNING 02: maximum depth increased for Node 167
  WARNING 02: maximum depth increased for Node 168
  WARNING 02: maximum depth increased for Node 170
  WARNING 02: maximum depth increased for Node 171
  WARNING 02: maximum depth increased for Node 173
  WARNING 02: maximum depth increased for Node 174
  
  *********************************************************
  NOTE: The summary statistics displayed in this report are
  based on results found at every computational time step,  
  not just on results from each reporting time step.
  *********************************************************
  
  ****************
  Analysis Options
  ****************
  Flow Units ............... CMS
  Process Models:
    Rainfall/Runoff ........ YES
    RDII ................... NO
    Snowmelt ............... NO
    Groundwater ............ NO
    Flow Routing ........... YES
    Ponding Allowed ........ NO
    Water Quality .......... NO
  Infiltration Method ...... CURVE_NUMBER
  Flow Routing Method ...... DYNWAVE
  Surcharge Method ......... EXTRAN
  Starting Date ............ 06/24/2020 00:00:00
  Ending Date .............. 06/25/2020 23:45:00
  Antecedent Dry Days ...... 0.0
  Report Time Step ......... 00:15:00
  Wet Time Step ............ 00:05:00
  Dry Time Step ............ 00:15:00
  Routing Time Step ........ 30.00 sec
  Variable Time Step ....... YES
  Maximum Trials ........... 8
  Number of Threads ........ 1
  Head Tolerance ........... 0.001500 m
  
  
  **************************        Volume         Depth
  Runoff Quantity Continuity     hectare-m            mm
  **************************     ---------       -------
  Total Precipitation ......        62.782        58.420
  Evaporation Loss .........         0.000         0.000
  Infiltration Loss ........        18.896        17.583
  Surface Runoff ...........        41.000        38.151
  Final Storage ............         3.970         3.695
  Continuity Error (%) .....        -1.728
  
  
  **************************        Volume        Volume
  Flow Routing Continuity        hectare-m      10^6 ltr
  **************************     ---------     ---------
  Dry Weather Inflow .......        52.424       524.241
  Wet Weather Inflow .......        40.990       409.904
  Groundwater Inflow .......         0.000         0.000
  RDII Inflow ..............         0.000         0.000
  External Inflow ..........         0.000         0.000
  External Outflow .........        67.485       674.862
  Flooding Loss ............        25.242       252.421
  Evaporation Loss .........         0.000         0.000
  Exfiltration Loss ........         0.000         0.000
  Initial Stored Volume ....         0.059         0.586
  Final Stored Volume ......         0.812         8.124
  Continuity Error (%) .....        -0.072
  
  
  ***************************
  Time-Step Critical Elements
  ***************************
  Link 47b (99.99%)
  
  
  ********************************
  Highest Flow Instability Indexes
  ********************************
  Link 53 (50)
  Link 54 (43)
  Link 52 (35)
  Link 51 (12)
  Link 63 (1)
  
  
  *************************
  Routing Time Step Summary
  *************************
  Minimum Time Step           :     0.50 sec
  Average Time Step           :     1.13 sec
  Maximum Time Step           :     4.07 sec
  Percent in Steady State     :     0.00
  Average Iterations per Step :     2.05
  Percent Not Converging      :     0.27
  
  
  ***************************
  Subcatchment Runoff Summary
  ***************************
  
  ------------------------------------------------------------------------------------------------------------------------------
                            Total      Total      Total      Total     Imperv       Perv      Total       Total     Peak  Runoff
                           Precip      Runon       Evap      Infil     Runoff     Runoff     Runoff      Runoff   Runoff   Coeff
  Subcatchment                 mm         mm         mm         mm         mm         mm         mm    10^6 ltr      CMS
  ------------------------------------------------------------------------------------------------------------------------------
  ws-1                      58.42       0.00       0.00      22.76      12.40      20.61      33.01        0.15     0.07   0.565
  ws-10                     58.42       0.00       0.00       6.83      47.06       6.35      53.40        0.15     0.17   0.914
  ws-101                    58.42       0.00       0.00       8.90      42.87       8.02      50.88        0.27     0.27   0.871
  ws-102                    58.42       0.00       0.00       8.35      44.02       7.64      51.66        0.25     0.26   0.884
  ws-103                    58.42       0.00       0.00      10.79      38.75       9.78      48.54        0.03     0.03   0.831
  ws-105                    58.42       0.00       0.00       8.27      44.26       7.51      51.77        0.17     0.18   0.886
  ws-106                    58.42       0.00       0.00       2.17      57.47       2.01      59.48        0.13     0.15   1.018
  ws-107                    58.42       0.00       0.00       2.94      55.85       2.74      58.59        0.15     0.17   1.003
  ws-108                    58.42       0.00       0.00       6.89      45.60       6.06      51.66        1.85     1.22   0.884
  ws-11                     58.42       0.00       0.00       8.26      45.65       6.39      52.04        0.78     0.71   0.891
  ws-112                    58.42       0.00       0.00      10.66      38.98       9.66      48.65        0.41     0.39   0.833
  ws-114                    58.42       0.00       0.00      18.69      28.64      10.29      38.93        0.02     0.02   0.666
  ws-115                    58.42       0.00       0.00      13.07      38.75       7.19      45.94        0.03     0.03   0.786
  ws-116                    58.42       0.00       0.00      12.87      35.92       7.74      43.66       10.02     4.60   0.747
  ws-118                    58.42       0.00       0.00      15.92      27.69      14.44      42.13        0.02     0.01   0.721
  ws-119                    58.42       0.00       0.00       7.08      46.41       6.40      52.81        0.40     0.38   0.904
  ws-12                     58.42       0.00       0.00       9.00      42.50       8.30      50.80        0.18     0.19   0.870
  ws-120                    58.42       0.00       0.00      10.38      39.42       9.54      48.96        0.10     0.10   0.838
  ws-121                    58.42       0.00       0.00       9.52      43.37       7.73      51.10        0.13     0.14   0.875
  ws-122                    58.42       0.00       0.00       7.92      44.65       7.19      51.84        0.55     0.52   0.887
  ws-123                    58.42       0.00       0.00       7.86      42.71       6.60      49.31       14.55     5.82   0.844
  ws-124                    58.42       0.00       0.00      16.06      27.34      14.39      41.73        0.31     0.26   0.714
  ws-127                    58.42       0.00       0.00      24.18       9.30      21.93      31.23        0.04     0.02   0.534
  ws-128                    58.42       0.00       0.00       6.12      45.39       5.01      50.41       34.43     7.35   0.863
  ws-13                     58.42       0.00       0.00      12.25      41.36       4.88      46.24        1.64     1.28   0.792
  ws-130                    58.42       0.00       0.00      17.71      23.20      16.24      39.44        0.04     0.03   0.675
  ws-131                    58.42       0.00       0.00      13.49      32.22      12.49      44.72        0.01     0.01   0.765
  ws-132                    58.42       0.00       0.00      10.58      37.15       8.61      45.76        8.79     3.42   0.783
  ws-136                    58.42       0.00       0.00      22.45      23.53       9.59      33.12        2.60     1.61   0.567
  ws-137                    58.42       0.00       0.00      17.88      22.40      16.82      39.22        0.09     0.07   0.671
  ws-138                    58.42       0.00       0.00      24.34       8.77      21.99      30.77        0.25     0.09   0.527
  ws-139                    58.42       0.00       0.00      24.39       7.93      23.16      31.09        0.09     0.03   0.532
  ws-14                     58.42       0.00       0.00       9.33      41.26       8.81      50.07        0.11     0.11   0.857
  ws-141                    58.42       0.00       0.00      24.94       6.95      23.39      30.34        0.05     0.02   0.519
  ws-142                    58.42       0.00       0.00      24.27       8.04      23.27      31.32        0.05     0.02   0.536
  ws-143                    58.42       0.00       0.00      23.57      10.33      21.53      31.86        0.22     0.09   0.545
  ws-144                    58.42       0.00       0.00      18.30      32.11       6.84      38.95        0.74     0.54   0.667
  ws-145                    58.42       0.00       0.00      10.25      38.40      10.43      48.83        0.05     0.05   0.836
  ws-146                    58.42       0.00       0.00      19.81      18.33      18.43      36.76        0.10     0.06   0.629
  ws-148                    58.42       0.00       0.00      17.54      30.15       8.54      38.70       31.51    17.90   0.662
  ws-149                    58.42       0.00       0.00      27.59       1.56      25.46      27.02        0.01     0.00   0.463
  ws-15                     58.42       0.00       0.00      12.89      37.07      10.07      47.14        0.10     0.10   0.807
  ws-150                    58.42       0.00       0.00      23.75      24.12       5.14      29.26       13.03     4.48   0.501
  ws-154                    58.42       0.00       0.00      16.77      25.44      15.27      40.71        0.26     0.20   0.697
  ws-155                    58.42       0.00       0.00      20.97      19.35      17.23      36.58        0.06     0.04   0.626
  ws-156                    58.42       0.00       0.00      15.18      29.33      13.50      42.83        0.22     0.18   0.733
  ws-157                    58.42       0.00       0.00      19.92      24.22      12.68      36.90        0.58     0.42   0.632
  ws-159                    58.42       0.00       0.00      27.18      23.88       3.29      27.17       20.21     9.80   0.465
  ws-16                     58.42       0.00       0.00       9.58      43.36       7.69      51.05        0.15     0.17   0.874
  ws-161                    58.42       0.00       0.00      25.00      26.27       1.75      28.02       54.68    11.72   0.480
  ws-162                    58.42       0.00       0.00      41.81       5.04       7.56      12.61        0.03     0.02   0.216
  ws-163                    58.42       0.00       0.00      37.43      10.98       6.99      17.97        0.07     0.06   0.308
  ws-165                    58.42       0.00       0.00      15.82      39.31       3.77      43.07        0.95     0.91   0.737
  ws-166                    58.42       0.00       0.00       4.34      55.35       1.09      56.43        0.54     0.55   0.966
  ws-167                    58.42       0.00       0.00       9.98      47.40       2.66      50.06        0.06     0.07   0.857
  ws-168                    58.42       0.00       0.00      13.10      43.10       2.44      45.54        0.79     0.64   0.780
  ws-169                    58.42       0.00       0.00       8.21      50.33       2.12      52.45        0.08     0.09   0.898
  ws-17                     58.42       0.00       0.00      18.77      31.09       4.17      35.25       24.71     6.40   0.603
  ws-170                    58.42       0.00       0.00      12.56      44.11       3.05      47.16        0.28     0.29   0.807
  ws-171                    58.42       0.00       0.00      14.38      40.46       2.43      42.89        4.92     2.57   0.734
  ws-172                    58.42       0.00       0.00      14.15      31.15      12.44      43.59        0.67     0.50   0.746
  ws-173                    58.42       0.00       0.00      10.14      37.78       8.00      45.78       10.09     3.15   0.784
  ws-174                    58.42       0.00       0.00       6.84      49.04       5.39      54.43        0.05     0.05   0.932
  ws-18                     58.42       0.00       0.00       8.14      44.02       7.42      51.44        0.09     0.10   0.880
  ws-19                     58.42       0.00       0.00      22.60      30.70       3.93      34.63        1.37     1.12   0.593
  ws-2                      58.42       0.00       0.00      25.62      11.57      21.02      32.59        0.08     0.04   0.558
  ws-20                     58.42       0.00       0.00      22.13      30.69       3.45      34.13        4.72     2.85   0.584
  ws-21                     58.42       0.00       0.00      29.65      19.96       7.08      27.04        0.16     0.15   0.463
  ws-22                     58.42       0.00       0.00      18.28      34.07       3.44      37.51        7.72     3.06   0.642
  ws-23                     58.42       0.00       0.00      27.11      25.12       4.88      30.00        0.22     0.20   0.514
  ws-24                     58.42       0.00       0.00      22.62      29.53       5.61      35.15        0.06     0.06   0.602
  ws-25                     58.42       0.00       0.00      21.83      31.56       3.75      35.30        1.16     0.90   0.604
  ws-26                     58.42       0.00       0.00      21.72      30.01       4.48      34.49        3.59     2.18   0.590
  ws-27                     58.42       0.00       0.00      28.96      20.85       6.99      27.84        0.13     0.12   0.477
  ws-28                     58.42       0.00       0.00      27.00      23.80       6.42      30.23        0.30     0.29   0.517
  ws-29                     58.42       0.00       0.00      36.02      12.97       6.65      19.62        0.26     0.22   0.336
  ws-3                      58.42       0.00       0.00      19.25      27.45       9.23      36.68        3.55     2.07   0.628
  ws-30                     58.42       0.00       0.00      30.03      21.20       5.39      26.60        0.40     0.38   0.455
  ws-31                     58.42       0.00       0.00      37.37       8.91       8.84      17.75        0.06     0.04   0.304
  ws-32                     58.42       0.00       0.00      35.32      14.61       5.10      19.71        1.96     1.65   0.337
  ws-35                     58.42       0.00       0.00      43.97       2.14       8.07      10.21        0.09     0.03   0.175
  ws-37                     58.42       0.00       0.00      15.42      36.93       6.21      43.14        0.41     0.37   0.738
  ws-38                     58.42       0.00       0.00      13.82      32.13      12.43      44.56        0.44     0.38   0.763
  ws-40                     58.42       0.00       0.00       7.46      45.93       6.88      52.81        0.10     0.11   0.904
  ws-41                     58.42       0.00       0.00       5.42      48.57       4.83      53.40        1.61     1.07   0.914
  ws-42                     58.42       0.00       0.00       8.78      42.41       7.75      50.16        1.47     1.19   0.859
  ws-43                     58.42       0.00       0.00      12.90      34.09      11.72      45.81        0.34     0.31   0.784
  ws-45                     58.42       0.00       0.00      18.03      30.43       8.76      39.18        5.96     4.17   0.671
  ws-46                     58.42       0.00       0.00       7.15      43.59       5.76      49.35        8.52     2.16   0.845
  ws-47                     58.42       0.00       0.00      11.76      36.42      10.76      47.18        0.31     0.31   0.808
  ws-48                     58.42       0.00       0.00       5.58      49.79       5.17      54.96        0.15     0.17   0.941
  ws-49                     58.42       0.00       0.00       2.75      54.08       3.08      57.17        0.63     0.42   0.979
  ws-50                     58.42       0.00       0.00       0.47      60.90       0.44      61.34        0.39     0.43   1.050
  ws-52                     58.42       0.00       0.00      11.24      37.77      10.20      47.96        0.80     0.78   0.821
  ws-53                     58.42       0.00       0.00       7.28      46.37       6.62      52.99        4.13     4.32   0.907
  ws-54                     58.42       0.00       0.00      11.05      37.87      10.09      47.96        0.20     0.22   0.821
  ws-55                     58.42       0.00       0.00      23.68      29.58       5.56      35.15        4.08     2.90   0.602
  ws-57                     58.42       0.00       0.00      26.62       4.63      23.21      27.84        0.11     0.02   0.476
  ws-58                     58.42       0.00       0.00      19.78      19.43      16.73      36.16        0.93     0.56   0.619
  ws-60                     58.42       0.00       0.00      13.77      32.27      12.43      44.70        0.21     0.19   0.765
  ws-61                     58.42       0.00       0.00      13.10      33.79      11.74      45.53        0.36     0.32   0.779
  ws-62                     58.42       0.00       0.00      14.18      31.25      12.82      44.07        0.14     0.13   0.754
  ws-63                     58.42       0.00       0.00      10.88      37.93       9.51      47.44        1.73     1.31   0.812
  ws-64                     58.42       0.00       0.00      18.81      31.51       6.27      37.77        3.63     2.24   0.647
  ws-65                     58.42       0.00       0.00      12.79      34.53      11.36      45.89        0.50     0.45   0.786
  ws-66                     58.42       0.00       0.00      13.48      33.02      12.02      45.04        6.78     6.00   0.771
  ws-69                     58.42       0.00       0.00      19.62      28.73       7.43      36.16        4.05     2.21   0.619
  ws-7                      58.42       0.00       0.00      19.22      20.18      17.36      37.54        0.09     0.06   0.643
  ws-70                     58.42       0.00       0.00      13.06      33.64      11.32      44.96        0.66     0.54   0.770
  ws-71                     58.42       0.00       0.00      15.05      32.56      10.49      43.06       21.59    18.85   0.737
  ws-73                     58.42       0.00       0.00      11.06      38.05      10.07      48.11        0.34     0.32   0.824
  ws-74                     58.42       0.00       0.00      25.39       7.23      20.03      27.27        0.74     0.24   0.467
  ws-75                     58.42       0.00       0.00      29.93       5.20      19.30      24.50        0.16     0.05   0.419
  ws-77                     58.42       0.00       0.00      30.13       4.40      20.28      24.68        0.06     0.01   0.422
  ws-78                     58.42       0.00       0.00      30.12      20.96       5.12      26.08        0.71     0.62   0.446
  ws-79                     58.42       0.00       0.00      21.74      19.53      15.29      34.82        0.33     0.23   0.596
  ws-8                      58.42       0.00       0.00      15.74      28.01      14.12      42.13        0.38     0.31   0.721
  ws-80                     58.42       0.00       0.00      19.96      23.21      15.70      38.92        0.02     0.02   0.666
  ws-81                     58.42       0.00       0.00      28.56      22.99       4.84      27.82        0.40     0.34   0.476
  ws-83                     58.42       0.00       0.00      24.58      28.05       4.16      32.21        0.47     0.37   0.551
  ws-84                     58.42       0.00       0.00      11.12      43.69       2.44      46.13       61.68    19.04   0.790
  ws-87                     58.42       0.00       0.00       0.79      60.02       0.70      60.73        0.12     0.13   1.039
  ws-88                     58.42       0.00       0.00       8.93      41.46       7.82      49.29        2.05     1.36   0.844
  ws-89                     58.42       0.00       0.00       0.73      60.63       0.69      61.32        0.12     0.14   1.050
  ws-9                      58.42       0.00       0.00      17.82      27.20      14.14      41.34        0.12     0.11   0.708
  ws-90                     58.42       0.00       0.00       0.71      60.47       0.83      61.30        0.02     0.02   1.049
  ws-91                     58.42       0.00       0.00       0.52      60.96       0.56      61.51        0.02     0.03   1.053
  ws-92                     58.42       0.00       0.00       2.37      57.16       2.17      59.33        0.07     0.08   1.016
  ws-93                     58.42       0.00       0.00       3.02      55.63       2.71      58.34        0.04     0.04   0.999
  ws-94                     58.42       0.00       0.00       2.73      54.20       2.49      56.68        0.88     0.62   0.970
  ws-95                     58.42       0.00       0.00       2.83      56.02       2.65      58.68        0.15     0.17   1.004
  ws-96                     58.42       0.00       0.00       1.05      59.26       1.10      60.36        0.04     0.05   1.033
  ws-97                     58.42       0.00       0.00       4.30      52.64       3.95      56.58        0.45     0.47   0.969
  ws-98                     58.42       0.00       0.00       5.98      49.22       5.45      54.67        0.42     0.45   0.936
  
  
  ******************
  Node Depth Summary
  ******************
  
  ---------------------------------------------------------------------------------
                                 Average  Maximum  Maximum  Time of Max    Reported
                                   Depth    Depth      HGL   Occurrence   Max Depth
  Node                 Type       Meters   Meters   Meters  days hr:min      Meters
  ---------------------------------------------------------------------------------
  1                    JUNCTION     0.22     1.10    35.80     0  16:09        1.00
  2                    JUNCTION     0.39     1.76    36.78     0  16:07        1.66
  3                    JUNCTION     0.41     1.84    37.17     0  16:08        1.76
  4                    JUNCTION     0.42     1.89    37.53     0  16:07        1.81
  5                    JUNCTION     0.42     1.91    37.87     0  16:07        1.83
  6                    JUNCTION     0.42     1.92    38.20     0  16:07        1.84
  7                    JUNCTION     0.42     1.93    38.52     0  16:07        1.84
  8                    JUNCTION     0.42     1.93    38.84     0  16:07        1.84
  9                    JUNCTION     0.42     1.94    39.15     0  16:07        1.84
  10                   JUNCTION     0.42     1.94    39.47     0  16:07        1.84
  11                   JUNCTION     0.42     1.94    39.78     0  16:07        1.85
  12                   JUNCTION     0.42     1.93    40.10     0  16:07        1.86
  13                   JUNCTION     0.42     1.93    40.41     0  16:07        1.86
  14                   JUNCTION     0.42     1.93    40.72     0  16:07        1.86
  15                   JUNCTION     0.42     1.93    41.03     0  16:06        1.86
  16                   JUNCTION     0.42     1.92    41.35     0  16:06        1.86
  17                   JUNCTION     0.42     1.92    41.66     0  16:06        1.86
  18                   JUNCTION     0.41     1.86    41.92     0  16:08        1.80
  19                   JUNCTION     0.41     1.83    42.21     0  16:08        1.77
  20                   JUNCTION     0.41     1.81    42.51     0  16:08        1.75
  21                   JUNCTION     0.41     1.79    42.83     0  16:08        1.73
  22                   JUNCTION     0.41     1.78    43.14     0  16:08        1.72
  23                   JUNCTION     0.40     1.76    43.46     0  16:09        1.70
  24                   JUNCTION     0.40     1.75    43.77     0  16:08        1.69
  25                   JUNCTION     0.40     1.75    43.88     0  16:08        1.69
  26                   JUNCTION     0.40     1.74    44.06     0  16:08        1.69
  27                   JUNCTION     0.40     1.73    44.38     0  16:08        1.68
  28                   JUNCTION     0.40     1.72    44.69     0  16:08        1.67
  29                   JUNCTION     0.40     1.72    45.13     0  16:08        1.66
  30                   JUNCTION     0.40     1.72    45.48     0  16:08        1.65
  31                   JUNCTION     0.40     1.71    45.80     0  16:08        1.65
  32                   JUNCTION     0.40     1.71    46.12     0  16:07        1.65
  33                   JUNCTION     0.40     1.71    46.44     0  16:07        1.65
  34                   JUNCTION     0.40     1.71    46.75     0  16:07        1.65
  35                   JUNCTION     0.40     1.71    47.09     0  16:07        1.65
  36                   JUNCTION     0.38     1.54    47.24     0  16:07        1.48
  37                   JUNCTION     0.38     1.44    47.51     0  15:57        1.39
  38                   JUNCTION     0.38     1.41    47.80     0  15:57        1.35
  39                   JUNCTION     0.37     1.55    48.00     0  15:57        1.47
  40                   JUNCTION     0.47     1.39    48.33     0  15:57        1.33
  41                   JUNCTION     0.35     1.06    49.58     0  15:54        0.99
  42                   JUNCTION     0.41     1.54    50.25     0  15:54        1.41
  43                   JUNCTION     0.37     1.00    50.79     0  15:53        0.97
  44                   JUNCTION     0.31     0.87    51.76     0  15:53        0.83
  45                   JUNCTION     0.55     1.84    52.89     0  15:54        1.76
  46                   JUNCTION     0.93     2.20    53.10     0  15:54        2.13
  47                   JUNCTION     0.53     1.75    53.08     0  15:54        1.68
  48                   JUNCTION     0.48     1.94    54.23     0  15:52        1.87
  49                   JUNCTION     0.44     1.83    54.19     0  15:52        1.83
  50                   JUNCTION     0.83     2.87    55.30     0  16:01        2.84
  51                   JUNCTION     0.28     0.97    55.17     0  16:01        0.95
  52                   JUNCTION     0.42     2.38    56.68     0  16:01        2.20
  53                   JUNCTION     0.58     2.10    56.68     0  16:00        1.99
  54                   JUNCTION     0.29     1.96    56.83     0  16:00        1.77
  55                   JUNCTION     0.13     1.64    56.87     0  16:00        1.51
  56a                  JUNCTION     0.24     1.60    57.11     0  16:00        1.59
  57                   JUNCTION     0.21     1.84    57.92     0  16:00        1.78
  58                   JUNCTION     0.39     2.05    58.13     0  15:59        1.96
  59                   JUNCTION     0.51     2.39    58.47     0  15:59        2.05
  60                   JUNCTION     0.75     2.62    58.70     0  15:57        2.32
  61                   JUNCTION     0.78     2.73    58.81     0  15:57        2.46
  62                   JUNCTION     0.10     1.20    59.11     0  15:57        0.61
  63                   JUNCTION     0.22     2.08    59.99     0  15:55        1.58
  64                   JUNCTION     0.14     1.73    59.89     0  15:57        1.24
  65                   JUNCTION     0.23     2.34    60.77     0  15:57        1.97
  66                   JUNCTION     0.36     2.22    60.74     0  15:57        1.97
  67                   JUNCTION     0.47     2.40    60.92     0  15:57        2.10
  68                   JUNCTION     0.21     1.35    60.88     0  15:56        1.22
  69                   JUNCTION     0.19     1.82    61.62     0  15:56        1.57
  70                   JUNCTION     0.63     2.23    62.06     0  15:56        1.99
  71                   JUNCTION     0.41     1.96    62.01     0  15:55        1.72
  72                   JUNCTION     0.58     2.18    62.22     0  15:55        1.90
  73                   JUNCTION     0.76     2.47    62.51     0  15:55        2.16
  74                   JUNCTION     0.78     2.54    62.58     0  15:55        2.24
  75                   JUNCTION     0.34     1.95    62.60     0  15:56        1.62
  76                   JUNCTION     0.31     1.98    62.94     0  15:54        1.49
  77                   JUNCTION     0.11     1.25    62.82     0  15:55        0.77
  78                   JUNCTION     0.48     1.99    63.56     0  15:54        1.34
  79                   JUNCTION     0.22     1.46    63.63     0  15:53        0.77
  80                   JUNCTION     0.15     1.54    64.16     0  15:53        0.68
  81                   JUNCTION     0.19     1.70    64.53     0  15:53        0.83
  82                   JUNCTION     0.19     1.78    64.82     0  15:53        0.83
  83                   JUNCTION     0.19     1.81    65.05     0  15:53        0.83
  84                   JUNCTION     0.19     1.80    65.26     0  15:53        0.83
  85                   JUNCTION     0.17     1.62    65.29     0  15:53        0.67
  86                   JUNCTION     0.17     1.47    65.35     0  15:53        0.62
  87                   JUNCTION     0.17     1.36    65.45     0  15:52        0.59
  88                   JUNCTION     0.17     1.28    65.58     0  15:52        0.57
  89                   JUNCTION     0.16     1.22    65.72     0  15:52        0.55
  90                   JUNCTION     0.16     1.22    66.01     0  15:52        0.54
  91                   JUNCTION     0.10     1.53    66.53     0  15:52        0.63
  92                   JUNCTION     0.10     1.43    66.63     0  15:52        0.63
  93                   JUNCTION     0.10     1.32    66.73     0  15:51        0.63
  94                   JUNCTION     0.10     1.22    66.85     0  15:51        0.65
  95                   JUNCTION     0.10     1.14    66.98     0  15:51        0.66
  96                   JUNCTION     0.10     1.05    67.10     0  15:51        0.64
  97                   JUNCTION     0.10     1.01    67.27     0  15:51        0.62
  98                   JUNCTION     0.13     1.15    67.44     0  15:51        0.81
  99                   JUNCTION     0.14     1.24    67.56     0  15:51        0.88
  100                  JUNCTION     0.15     1.31    67.66     0  15:51        0.93
  101                  JUNCTION     0.15     1.44    67.82     0  15:51        0.97
  102                  JUNCTION     0.14     1.43    67.87     0  15:51        0.99
  103                  JUNCTION     0.14     1.41    67.91     0  15:51        0.94
  104                  JUNCTION     0.13     1.40    67.96     0  15:51        0.95
  105                  JUNCTION     0.13     1.38    68.00     0  15:51        0.93
  106                  JUNCTION     0.13     1.36    68.04     0  15:52        0.92
  107                  JUNCTION     0.13     1.34    68.08     0  15:52        0.91
  108                  JUNCTION     0.13     1.30    68.10     0  15:52        0.90
  109                  JUNCTION     0.13     1.26    68.12     0  15:52        0.88
  110                  JUNCTION     0.13     1.23    68.15     0  15:52        0.87
  111                  JUNCTION     0.13     1.21    68.19     0  15:51        0.86
  112                  JUNCTION     0.13     1.19    68.25     0  15:50        0.85
  113                  JUNCTION     0.09     1.05    68.71     0  15:50        0.70
  114                  JUNCTION     0.09     0.96    69.31     0  15:50        0.68
  115                  JUNCTION     0.09     0.93    69.88     0  15:50        0.67
  116                  JUNCTION     0.09     0.93    70.74     0  15:50        0.67
  117                  JUNCTION     0.18     2.62    73.03     0  15:47        1.62
  118                  JUNCTION     0.19     3.19    74.20     0  15:47        2.39
  119                  JUNCTION     0.08     1.79    73.40     0  15:48        1.79
  120                  JUNCTION     0.06     1.21    73.42     0  15:48        1.21
  121                  JUNCTION     0.05     1.06    73.88     0  15:50        0.65
  122                  JUNCTION     0.04     0.90    74.35     0  15:50        0.41
  123                  JUNCTION     0.04     0.83    74.97     0  15:50        0.40
  124                  JUNCTION     0.07     2.04    74.56     0  15:48        1.12
  125                  JUNCTION     0.11     1.78    74.61     0  15:49        1.06
  126                  JUNCTION     0.10     1.22    74.35     0  15:49        1.00
  127                  JUNCTION     0.10     1.27    74.70     0  15:49        0.93
  128                  JUNCTION     0.10     1.29    75.04     0  15:49        0.89
  129                  JUNCTION     0.02     1.00    75.11     0  15:51        0.54
  130                  JUNCTION     0.00     0.56    75.17     0  15:50        0.07
  131                  JUNCTION     0.00     0.06    75.16     0  15:51        0.00
  132                  JUNCTION     0.22     0.99    65.93     0  15:52        0.47
  133                  JUNCTION     0.21     0.85    65.94     0  15:53        0.34
  134                  JUNCTION     0.21     0.68    65.91     0  15:53        0.30
  135                  JUNCTION     0.21     0.50    65.89     0  15:50        0.29
  136                  JUNCTION     0.21     0.48    66.02     0  15:50        0.29
  137                  JUNCTION     0.31     0.51    66.07     0  15:50        0.39
  138                  JUNCTION     0.56     0.73    66.31     0  15:50        0.70
  139                  JUNCTION     0.64     0.82    66.41     0  15:50        0.80
  140                  JUNCTION     0.69     0.88    66.48     0  15:50        0.86
  141                  JUNCTION     0.73     0.93    66.55     0  15:50        0.92
  142                  JUNCTION     0.77     0.97    66.61     0  15:50        0.96
  143                  JUNCTION     0.79     1.00    66.66     0  15:47        1.00
  144                  JUNCTION     0.82     1.11    66.78     0  15:46        1.03
  145                  JUNCTION     0.84     1.06    66.75     0  15:45        1.06
  146                  JUNCTION     0.87     1.28    66.98     0  15:45        1.25
  147                  JUNCTION     0.90     1.44    67.16     0  15:45        1.44
  148                  JUNCTION     0.94     1.78    67.52     0  15:45        1.78
  149                  JUNCTION     0.95     2.23    67.99     0  15:45        1.92
  150                  JUNCTION     0.39     3.23    69.61     0  15:45        1.46
  151                  JUNCTION     0.52     3.47    70.28     0  15:46        1.12
  152                  JUNCTION     0.54     2.54    69.96     0  15:46        1.04
  153                  JUNCTION     0.53     2.17    70.18     0  15:46        0.96
  154                  JUNCTION     0.53     1.79    70.41     0  15:46        0.89
  155                  JUNCTION     0.53     1.38    70.60     0  15:46        0.80
  156                  JUNCTION     0.52     0.92    70.74     0  15:46        0.72
  157                  JUNCTION     0.51     0.66    71.08     0  15:45        0.62
  158                  JUNCTION     0.50     0.50    71.52     0  00:00        0.50
  160                  JUNCTION     0.24     1.57    47.11     0  16:07        1.51
  161                  JUNCTION     0.16     1.49    47.13     0  16:07        1.43
  162                  JUNCTION     0.11     1.40    47.13     0  16:07        1.35
  163                  JUNCTION     0.09     1.31    47.13     0  16:07        1.26
  164                  JUNCTION     0.07     1.22    47.14     0  16:07        1.18
  165                  JUNCTION     0.06     1.13    47.14     0  16:07        1.09
  166                  JUNCTION     0.05     1.04    47.14     0  16:07        1.01
  167                  JUNCTION     0.04     0.87    47.14     0  16:07        0.84
  168                  JUNCTION     0.03     0.78    47.14     0  16:07        0.75
  169                  JUNCTION     0.03     0.69    47.15     0  16:06        0.66
  170                  JUNCTION     0.03     0.60    47.15     0  16:06        0.56
  171                  JUNCTION     0.02     0.46    47.17     0  15:58        0.39
  172                  JUNCTION     0.12     1.06    48.35     0  15:55        0.99
  173                  JUNCTION     0.02     0.38    48.39     0  15:56        0.25
  174                  JUNCTION     0.00     0.02    49.38     0  15:50        0.00
  47a                  JUNCTION     0.22     1.22    53.44     0  15:52        1.18
  47b                  JUNCTION     0.39     1.66    53.90     0  15:52        1.61
  56b                  JUNCTION     0.34     2.33    57.83     0  16:00        2.30
  159                  JUNCTION     0.50     0.50    72.01     0  00:00        0.50
  0                    OUTFALL      2.00     2.00    34.39     0  00:00        2.00
  
  
  *******************
  Node Inflow Summary
  *******************
  
  -------------------------------------------------------------------------------------------------
                                  Maximum  Maximum                  Lateral       Total        Flow
                                  Lateral    Total  Time of Max      Inflow      Inflow     Balance
                                   Inflow   Inflow   Occurrence      Volume      Volume       Error
  Node                 Type           CMS      CMS  days hr:min    10^6 ltr    10^6 ltr     Percent
  -------------------------------------------------------------------------------------------------
  1                    JUNCTION     0.075   47.869     0  16:08       0.149         675       0.001
  2                    JUNCTION     0.042   42.149     0  16:07      0.0815         675       0.022
  3                    JUNCTION     2.071   41.968     0  16:07        3.55         675       0.015
  4                    JUNCTION     0.000   41.514     0  16:07           0         671       0.015
  5                    JUNCTION     0.000   41.510     0  16:07           0         672       0.015
  6                    JUNCTION     0.000   41.509     0  16:07           0         672       0.015
  7                    JUNCTION     0.064   41.515     0  16:06      0.0901         672       0.015
  8                    JUNCTION     0.314   41.509     0  16:06       0.383         672       0.015
  9                    JUNCTION     0.106   41.463     0  16:06        0.12         671       0.015
  10                   JUNCTION     0.170   41.451     0  16:06       0.149         671       0.015
  11                   JUNCTION     0.708   41.425     0  16:06       0.775         671       0.015
  12                   JUNCTION     0.194   41.303     0  16:07       0.183         671       0.015
  13                   JUNCTION     1.278   41.275     0  16:07        1.64         671       0.015
  14                   JUNCTION     0.112   41.018     0  16:07       0.105         669       0.015
  15                   JUNCTION     0.101   41.000     0  16:06       0.099         669       0.015
  16                   JUNCTION     0.166   40.985     0  16:06       0.153         669       0.015
  17                   JUNCTION     6.398   40.957     0  16:06        24.7         669       0.015
  18                   JUNCTION     0.099   37.332     0  16:09      0.0874         644       0.016
  19                   JUNCTION     1.123   37.314     0  16:08        1.37         644       0.016
  20                   JUNCTION     2.854   37.153     0  16:08        4.72         643       0.016
  21                   JUNCTION     0.150   36.543     0  16:09       0.162         639       0.016
  22                   JUNCTION     3.064   36.529     0  16:08        7.71         639       0.016
  23                   JUNCTION     0.205   35.428     0  16:09       0.216         631       0.016
  24                   JUNCTION     0.064   35.405     0  16:08      0.0597         631       0.011
  25                   JUNCTION     0.896   35.399     0  16:08        1.16         631       0.008
  26                   JUNCTION     2.177   35.262     0  16:08        3.59         630       0.013
  27                   JUNCTION     0.124   34.804     0  16:08       0.131         626       0.016
  28                   JUNCTION     0.293   34.794     0  16:08       0.302         626       0.019
  29                   JUNCTION     0.221   34.768     0  16:08       0.265         626       0.020
  30                   JUNCTION     0.379   34.750     0  16:08       0.404         626       0.017
  31                   JUNCTION     0.040   34.708     0  16:07      0.0621         626       0.016
  32                   JUNCTION     1.649   34.707     0  16:07        1.96         626       0.016
  33                   JUNCTION     0.000   34.489     0  16:07           0         624       0.016
  34                   JUNCTION     0.000   34.491     0  16:07           0         624       0.017
  35                   JUNCTION     0.025   34.511     0  16:07      0.0908         624       0.025
  36                   JUNCTION     0.000   25.685     0  15:57           0         562       0.019
  37                   JUNCTION     0.372   25.726     0  15:57       0.414         562       0.019
  38                   JUNCTION     0.381   25.671     0  15:57       0.441         561       0.012
  39                   JUNCTION     0.000   25.794     0  15:57           0         561       0.010
  40                   JUNCTION     0.108   25.950     0  15:56         0.1         561       0.034
  41                   JUNCTION     1.070   24.895     0  15:54        1.61         550       0.017
  42                   JUNCTION     1.191   24.068     0  15:54        1.47         549       0.020
  43                   JUNCTION     0.314   23.292     0  15:53       0.343         548       0.016
  44                   JUNCTION     0.000   23.195     0  15:54           0         547       0.009
  45                   JUNCTION     4.168   23.274     0  15:53        5.95         547       0.005
  46                   JUNCTION     2.160   22.268     0  15:53        8.52         541       0.026
  47                   JUNCTION     0.307   20.833     0  15:52       0.311         533       0.009
  48                   JUNCTION     0.172   21.016     0  15:52       0.148         533      -0.003
  49                   JUNCTION     0.424   36.435     0  16:01       0.634         550       0.003
  50                   JUNCTION     0.429   36.931     0  16:01       0.386         550       0.021
  51                   JUNCTION     0.000   36.936     0  16:01           0         549       0.008
  52                   JUNCTION     0.784   38.374     0  16:00       0.801         549      -0.014
  53                   JUNCTION     5.617   38.999     0  16:00         228         549       0.032
  54                   JUNCTION     0.218   37.041     0  16:00       0.197         321       0.022
  55                   JUNCTION     2.901   38.307     0  16:00        4.08         321       0.008
  56a                  JUNCTION     0.000   36.918     0  15:58           0         317       0.006
  57                   JUNCTION     0.024   45.619     0  15:59       0.106         317       0.013
  58                   JUNCTION     0.561   45.411     0  15:59       0.925         317       0.027
  59                   JUNCTION     0.000   45.425     0  15:58           0         316       0.023
  60                   JUNCTION     0.185   47.856     0  15:57       0.206         316       0.035
  61                   JUNCTION     0.317   48.655     0  15:57       0.355         315      -0.261
  62                   JUNCTION     0.128   65.391     0  15:55       0.141         315       0.054
  63                   JUNCTION     1.306   40.199     0  15:57        1.73         315       0.042
  64                   JUNCTION     2.235   36.124     0  15:54        3.63         313       0.006
  65                   JUNCTION     0.451   39.168     0  15:58       0.505         310       0.007
  66                   JUNCTION     5.997   37.102     0  15:58        6.78         309       0.020
  67                   JUNCTION     0.000   35.141     0  15:53           0         303       0.018
  68                   JUNCTION     0.000   35.318     0  15:53           0         303       0.025
  69                   JUNCTION     2.211   35.954     0  15:56        4.05         303       0.005
  70                   JUNCTION     0.541   35.826     0  15:55       0.661         299       0.029
  71                   JUNCTION    18.854   36.279     0  15:55        21.6         298       0.017
  72                   JUNCTION     0.000   35.614     0  15:55           0         277       0.027
  73                   JUNCTION     0.317   36.683     0  15:55       0.337         277       0.044
  74                   JUNCTION     0.238   38.823     0  15:55       0.739         277       0.062
  75                   JUNCTION     0.046   40.777     0  15:54       0.164         276       0.028
  76                   JUNCTION     0.000   46.981     0  15:54           0         276       0.029
  77                   JUNCTION     0.014   46.383     0  15:54      0.0568         276       0.031
  78                   JUNCTION     0.620   47.679     0  15:54       0.707         276       0.013
  79                   JUNCTION     0.227   49.086     0  15:53       0.327         275       0.008
  80                   JUNCTION     0.019   46.290     0  15:53      0.0233         275       0.004
  81                   JUNCTION     0.340   46.012     0  15:53       0.395         275       0.005
  82                   JUNCTION     0.000   44.430     0  15:53           0         274       0.006
  83                   JUNCTION     0.374   44.221     0  15:53       0.467         274       0.006
  84                   JUNCTION    19.036   43.726     0  15:53        61.7         274       0.009
  85                   JUNCTION     0.000   28.866     0  15:53           0         212       0.008
  86                   JUNCTION     0.000   27.941     0  15:53           0         212       0.008
  87                   JUNCTION     0.129   26.759     0  15:52       0.121         212       0.008
  88                   JUNCTION     1.358   25.532     0  15:52        2.04         212       0.009
  89                   JUNCTION     0.144   24.551     0  15:52       0.123         210       0.009
  90                   JUNCTION     0.023   25.661     0  15:52      0.0184         210       0.009
  91                   JUNCTION     0.030   16.638     0  15:52      0.0246        59.9       0.001
  92                   JUNCTION     0.084   15.360     0  15:52      0.0712        59.9       0.002
  93                   JUNCTION     0.042   14.125     0  15:51       0.035        59.9       0.002
  94                   JUNCTION     0.624   13.433     0  15:52       0.884        59.8       0.001
  95                   JUNCTION     0.167   12.878     0  15:52       0.147        58.9       0.001
  96                   JUNCTION     0.053   12.622     0  15:52      0.0422        58.8      -0.003
  97                   JUNCTION     0.471   12.380     0  15:52       0.447        58.7      -0.010
  98                   JUNCTION     0.447   11.781     0  15:52       0.415        58.3       0.023
  99                   JUNCTION     0.000   11.235     0  15:52           0        57.9       0.002
  100                  JUNCTION     0.000   10.990     0  15:52           0        57.9      -0.004
  101                  JUNCTION     0.273   10.864     0  15:51       0.275        57.9       0.011
  102                  JUNCTION     0.256   10.578     0  15:52       0.248        57.6       0.002
  103                  JUNCTION     0.033   10.224     0  15:52       0.034        57.4       0.003
  104                  JUNCTION     0.000   10.170     0  15:51           0        57.3       0.002
  105                  JUNCTION     0.177   10.369     0  15:51       0.171        57.3       0.001
  106                  JUNCTION     0.149   10.281     0  15:51       0.131        57.2       0.002
  107                  JUNCTION     0.170   10.272     0  15:51       0.146          57       0.002
  108                  JUNCTION     1.221   10.190     0  15:50        1.85        56.9       0.000
  109                  JUNCTION     0.000    9.169     0  15:50           0        55.1       0.003
  110                  JUNCTION     0.000    9.168     0  15:50           0          55       0.004
  111                  JUNCTION     0.000    9.156     0  15:50           0          55       0.002
  112                  JUNCTION     0.395    9.298     0  15:50       0.413        55.1       0.004
  113                  JUNCTION     0.000    8.954     0  15:50           0        54.6       0.000
  114                  JUNCTION     0.019    9.015     0  15:50      0.0195        54.6       0.003
  115                  JUNCTION     0.030    9.017     0  15:50      0.0276        54.6       0.003
  116                  JUNCTION     4.601    8.988     0  15:50          10        54.6       0.003
  117                  JUNCTION     0.000    4.460     0  15:49           0        44.6       0.000
  118                  JUNCTION     0.015    5.584     0  15:50      0.0168        45.5       0.001
  119                  JUNCTION     0.379    3.490     0  15:48       0.401        14.1      -0.014
  120                  JUNCTION     0.100    6.467     0  15:50      0.0979        15.3      -0.023
  121                  JUNCTION     0.144    6.355     0  15:50       0.133        15.2      -0.001
  122                  JUNCTION     0.521    6.328     0  15:50       0.549        15.1       0.005
  123                  JUNCTION     5.823    5.823     0  15:50        14.5        14.5       0.005
  124                  JUNCTION     0.256    5.570     0  15:50       0.313        34.5      -0.002
  125                  JUNCTION     0.000    5.426     0  15:55           0        34.2       0.003
  126                  JUNCTION     0.000    5.594     0  15:50           0        34.3      -0.000
  127                  JUNCTION     0.015    5.683     0  15:49      0.0375        34.3       0.001
  128                  JUNCTION     7.355    7.792     0  15:51        34.4        34.8       0.002
  129                  JUNCTION     0.000    1.765     0  15:49           0       0.538       0.005
  130                  JUNCTION     0.030    1.268     0  15:50      0.0394       0.187       0.082
  131                  JUNCTION     0.009    0.124     0  15:50     0.00894       0.012       0.046
  132                  JUNCTION     3.419    6.150     0  15:50        8.79         150       0.010
  133                  JUNCTION     0.000    3.056     0  15:53           0         141       0.011
  134                  JUNCTION     0.000    2.942     0  15:50           0         141       0.011
  135                  JUNCTION     0.000    2.946     0  15:50           0         142       0.011
  136                  JUNCTION     1.613    2.961     0  15:50         2.6         142       0.015
  137                  JUNCTION     0.067    1.394     0  15:50      0.0902         139       0.020
  138                  JUNCTION     0.095    1.335     0  15:50       0.252         139       0.023
  139                  JUNCTION     0.033    1.265     0  15:47       0.087         139       0.026
  140                  JUNCTION     0.000    1.352     0  15:47           0         139       0.029
  141                  JUNCTION     0.016    1.494     0  15:46      0.0485         139       0.033
  142                  JUNCTION     0.018    1.656     0  15:46       0.047         139       0.034
  143                  JUNCTION     0.094    1.925     0  15:46        0.22         139       0.033
  144                  JUNCTION     0.535    2.015     0  15:46       0.736         139       0.034
  145                  JUNCTION     0.050    2.623     0  15:50      0.0488         150       0.032
  146                  JUNCTION     0.062    2.573     0  15:50      0.0955         150       0.031
  147                  JUNCTION     0.000    3.299     1  07:06           0         153       0.032
  148                  JUNCTION    17.903   21.841     0  15:50        31.5         165       0.032
  149                  JUNCTION     0.001    5.106     0  15:50     0.00811         133       0.037
  150                  JUNCTION     4.479    5.105     0  15:50          13         133       0.005
  151                  JUNCTION     0.000    1.172     0  15:45           0         120       0.011
  152                  JUNCTION     0.000    0.740     0  15:45           0         120       0.012
  153                  JUNCTION     0.000    0.740     0  15:45           0         120       0.012
  154                  JUNCTION     0.200    0.740     0  15:45        0.26         120       0.002
  155                  JUNCTION     0.040    0.718     0  15:45      0.0585         120       0.002
  156                  JUNCTION     0.185    0.722     0  15:45       0.223         120       0.002
  157                  JUNCTION     0.422    1.024     0  15:50       0.579         120       0.002
  158                  JUNCTION     0.000    0.741     0  00:00           0         121       0.011
  160                  JUNCTION     0.000   12.549     0  15:51           0        62.4       0.058
  161                  JUNCTION    11.719   13.177     0  15:51        54.7          63       0.010
  162                  JUNCTION     0.016    2.782     0  15:52      0.0315        8.76       0.010
  163                  JUNCTION     0.056    2.942     0  15:52      0.0718        8.26       0.012
  164                  JUNCTION     0.000    3.185     0  15:51           0        7.87       0.011
  165                  JUNCTION     0.911    3.421     0  15:51       0.947        7.74       0.009
  166                  JUNCTION     0.550    3.042     0  15:51       0.542        6.75       0.017
  167                  JUNCTION     0.072    2.853     0  15:50        0.06        6.16       0.019
  168                  JUNCTION     0.638    3.146     0  15:50       0.792        6.07       0.010
  169                  JUNCTION     0.094    2.734     0  15:50      0.0786        5.27       0.013
  170                  JUNCTION     0.290    2.775     0  15:50       0.278        5.19       0.018
  171                  JUNCTION     2.567    2.567     0  15:50        4.91        4.91       0.010
  172                  JUNCTION     0.504    3.522     0  15:50       0.671        10.8       0.135
  173                  JUNCTION     3.151    3.198     0  15:50        10.1        10.1       0.026
  174                  JUNCTION     0.055    0.055     0  15:50       0.049       0.049       0.004
  47a                  JUNCTION     0.000   21.019     0  15:52           0         533       0.002
  47b                  JUNCTION     0.000   21.196     0  15:52           0         533       0.002
  56b                  JUNCTION     0.000   36.875     0  15:58           0         317       0.008
  159                  JUNCTION    11.549   11.549     0  15:50         321         321       0.001
  0                    OUTFALL      0.000   42.712     0  16:09           0         675       0.000
  
  
  **********************
  Node Surcharge Summary
  **********************
  
  Surcharging occurs when water rises above the top of the highest conduit.
  ---------------------------------------------------------------------
                                               Max. Height   Min. Depth
                                   Hours       Above Crown    Below Rim
  Node                 Type      Surcharged         Meters       Meters
  ---------------------------------------------------------------------
  48                   JUNCTION        0.53          0.114        0.042
  49                   JUNCTION        0.50          0.014        0.000
  54                   JUNCTION        0.01          0.102        0.202
  113                  JUNCTION        0.02          0.055        1.512
  117                  JUNCTION        0.79          1.618        1.313
  118                  JUNCTION        0.94          2.189        0.374
  119                  JUNCTION        0.73          0.793        0.000
  120                  JUNCTION        0.58          0.215        0.000
  121                  JUNCTION        0.02          0.058        0.261
  124                  JUNCTION        0.44          1.038        0.949
  125                  JUNCTION        0.36          0.781        0.129
  126                  JUNCTION        0.30          0.224        0.000
  127                  JUNCTION        0.26          0.273        0.000
  128                  JUNCTION        0.24          0.285        0.000
  143                  JUNCTION        2.61          0.000        0.000
  144                  JUNCTION        4.66          0.112        0.085
  145                  JUNCTION        4.98          0.062        0.000
  146                  JUNCTION        5.28          0.276        0.000
  147                  JUNCTION        5.61          0.439        0.000
  148                  JUNCTION        6.20          0.781        0.000
  149                  JUNCTION        6.32          1.234        0.000
  150                  JUNCTION        1.70          2.230        0.000
  151                  JUNCTION        0.55          2.469        0.031
  152                  JUNCTION       47.70          2.041        0.093
  153                  JUNCTION       47.71          1.666        0.000
  154                  JUNCTION       47.71          1.292        0.000
  155                  JUNCTION       47.72          0.881        0.229
  156                  JUNCTION       47.72          0.416        0.000
  157                  JUNCTION       47.73          0.157        0.000
  158                  JUNCTION       47.74          0.000        0.000
  56b                  JUNCTION        0.17          0.346        0.032
  159                  JUNCTION       47.75          0.000        0.000
  
  
  *********************
  Node Flooding Summary
  *********************
  
  Flooding refers to all water that overflows a node, whether it ponds or not.
  --------------------------------------------------------------------------
                                                             Total   Maximum
                                 Maximum   Time of Max       Flood    Ponded
                        Hours       Rate    Occurrence      Volume     Depth
  Node                 Flooded       CMS   days hr:min    10^6 ltr    Meters
  --------------------------------------------------------------------------
  49                      0.50    16.446      0  16:01      17.736     0.000
  119                     0.47     3.012      0  15:50       3.162     0.000
  120                     0.43     5.053      0  15:50       2.512     0.000
  126                     0.10     0.661      0  15:49       0.070     0.000
  127                     0.01     0.884      0  15:49       0.003     0.000
  128                     0.08     2.210      0  15:51       0.237     0.000
  143                     2.58     0.375      0  15:50       0.320     0.000
  145                     4.20     1.693      0  15:50      12.154     0.000
  146                     0.01     0.987      0  15:45       0.003     0.000
  147                     1.50     0.882      0  15:45       3.183     0.000
  148                     0.81    18.527      0  15:50      11.236     0.000
  149                     0.08     1.167      0  15:50       0.159     0.000
  150                     0.01     0.959      0  15:45       0.001     0.000
  153                     0.01     0.056      0  15:46       0.000     0.000
  154                     0.01     0.034      0  15:46       0.000     0.000
  156                     0.12     0.328      0  15:50       0.069     0.000
  157                     0.62     0.494      0  15:50       0.252     0.000
  158                    47.74     0.099      1  06:07       0.939     0.000
  159                    47.75    10.840      0  15:50     200.393     0.000
  
  
  ***********************
  Outfall Loading Summary
  ***********************
  
  -----------------------------------------------------------
                         Flow       Avg       Max       Total
                         Freq      Flow      Flow      Volume
  Outfall Node           Pcnt       CMS       CMS    10^6 ltr
  -----------------------------------------------------------
  0                     98.80     4.814    42.712     674.859
  -----------------------------------------------------------
  System                98.80     4.814    42.712     674.859
  
  
  ********************
  Link Flow Summary
  ********************
  
  -----------------------------------------------------------------------------
                                 Maximum  Time of Max   Maximum    Max/    Max/
                                  |Flow|   Occurrence   |Veloc|    Full    Full
  Link                 Type          CMS  days hr:min     m/sec    Flow   Depth
  -----------------------------------------------------------------------------
  1                    CONDUIT    42.712     0  16:09      4.02    0.33    0.73
  2                    CONDUIT    47.860     0  16:08      4.93    1.01    0.65
  3                    CONDUIT    42.144     0  16:07      3.50    0.89    0.84
  4                    CONDUIT    41.530     0  16:07      3.19    0.88    0.87
  5                    CONDUIT    41.514     0  16:07      3.12    0.88    0.89
  6                    CONDUIT    41.510     0  16:07      3.09    0.87    0.90
  7                    CONDUIT    41.509     0  16:07      3.08    0.87    0.90
  8                    CONDUIT    41.505     0  16:06      3.07    0.87    0.91
  9                    CONDUIT    41.459     0  16:06      3.06    0.87    0.91
  10                   CONDUIT    41.444     0  16:06      3.06    0.87    0.91
  11                   CONDUIT    41.420     0  16:07      3.06    0.87    0.91
  12                   CONDUIT    41.306     0  16:07      3.05    0.87    0.91
  13                   CONDUIT    41.275     0  16:07      3.05    0.87    0.91
  14                   CONDUIT    41.019     0  16:07      3.03    0.86    0.91
  15                   CONDUIT    41.000     0  16:07      3.04    0.86    0.90
  16                   CONDUIT    40.984     0  16:06      3.04    0.86    0.90
  17                   CONDUIT    40.956     0  16:06      3.04    0.86    0.90
  18                   CONDUIT    37.356     0  16:09      2.83    0.79    0.89
  19                   CONDUIT    37.325     0  16:09      2.89    0.79    0.87
  20                   CONDUIT    37.162     0  16:08      2.91    0.78    0.86
  21                   CONDUIT    36.555     0  16:09      2.90    0.77    0.85
  22                   CONDUIT    36.533     0  16:09      2.92    0.77    0.84
  23                   CONDUIT    35.440     0  16:09      2.86    0.75    0.83
  24                   CONDUIT    35.409     0  16:09      2.88    0.75    0.82
  25                   CONDUIT    35.400     0  16:08      2.89    0.75    0.82
  26                   CONDUIT    35.264     0  16:08      2.89    0.74    0.82
  27                   CONDUIT    34.811     0  16:08      2.87    0.73    0.81
  28                   CONDUIT    34.794     0  16:08      2.88    0.73    0.81
  29                   CONDUIT    34.766     0  16:08      2.89    0.73    0.81
  30                   CONDUIT    34.746     0  16:08      2.89    0.73    0.81
  31                   CONDUIT    34.706     0  16:08      2.89    0.73    0.80
  32                   CONDUIT    34.704     0  16:07      2.89    0.73    0.80
  33                   CONDUIT    34.490     0  16:07      2.88    0.73    0.80
  34                   CONDUIT    34.489     0  16:07      2.88    0.73    0.80
  35                   CONDUIT    34.491     0  16:07      2.89    0.73    0.80
  36                   CONDUIT    25.682     0  15:58      2.35    0.54    0.76
  37                   CONDUIT    25.685     0  15:57      2.47    0.54    0.70
  38                   CONDUIT    25.683     0  15:57      2.57    0.54    0.67
  39                   CONDUIT    25.648     0  15:57      1.90    0.34    0.69
  40                   CHANNEL    25.794     0  15:57      2.46    0.44    0.69
  41                   CHANNEL    24.984     0  15:54      4.17    0.06    0.28
  42                   CONDUIT    24.468     0  15:54      3.13    0.61    0.53
  43                   CHANNEL    23.635     0  15:54      2.77    0.06    0.38
  44                   CHANNEL    23.193     0  15:53      2.73    0.06    0.28
  45                   CONDUIT    23.195     0  15:54      4.78    0.25    0.43
  46                   CHANNEL    21.784     0  15:54      2.06    0.47    0.73
  47                   CHANNEL    20.640     0  15:54      1.85    0.08    0.64
  47a                  CONDUIT    20.700     0  15:52      2.98    0.23    0.80
  49                   CHANNEL    20.935     0  15:52      2.42    0.60    1.00
  50                   CHANNEL    36.332     0  16:01      4.63    4.01    1.00
  51                   CHANNEL    36.895     0  16:01      2.11    0.15    0.63
  52                   CONDUIT    36.936     0  16:01      5.46    1.28    0.77
  53                   CHANNEL    38.336     0  16:00      3.24    0.51    0.91
  54                   CHANNEL    37.496     0  16:00      3.10    0.54    1.00
  55                   CONDUIT    37.037     0  16:00      1.94    0.34    0.94
  56a                  CHANNEL    37.921     0  16:00      4.14    0.04    0.23
  57                   CHANNEL    36.875     0  15:58      2.06    0.42    1.00
  58                   CHANNEL    45.619     0  15:59      2.83    1.54    0.24
  59                   CHANNEL    45.382     0  15:59      2.73    1.35    0.25
  60                   CHANNEL    45.425     0  15:58      2.75    2.17    0.31
  61                   CHANNEL    47.849     0  15:57      2.24    8.78    0.67
  62                   CHANNEL    48.637     0  15:57      3.82    0.04    0.30
  63                   CHANNEL    65.388     0  15:55      5.24    4.43    0.34
  64                   CHANNEL    39.984     0  15:57      3.25    0.15    0.60
  65                   CONDUIT    35.168     0  15:58      5.30    0.92    1.00
  66                   CHANNEL    39.141     0  15:58      2.32    0.25    0.53
  67                   CHANNEL    36.800     0  15:58      2.21    3.65    0.50
  68                   CHANNEL    35.141     0  15:53      2.37    0.06    0.33
  70                   CHANNEL    35.194     0  15:56      3.02    1.21    0.55
  71                   CHANNEL    35.753     0  15:55      2.31    0.21    0.68
  72                   CHANNEL    34.243     0  15:55      1.87    7.34    0.62
  73                   CHANNEL    35.614     0  15:55      2.15    9.25    0.63
  74                   CHANNEL    36.653     0  15:55      1.59   11.95    0.82
  75                   CHANNEL    38.804     0  15:55      1.73    0.28    0.80
  76                   CHANNEL    40.775     0  15:54      2.11    0.14    0.42
  77                   CHANNEL    46.981     0  15:54      1.94    0.06    0.39
  78                   CHANNEL    46.381     0  15:54      4.48    8.10    0.40
  79                   CHANNEL    47.485     0  15:54      2.76    0.02    0.21
  80                   CONDUIT    27.490     0  15:53      5.74    0.89    0.76
  81                   CONDUIT    25.797     0  15:53      4.81    1.21    0.86
  82                   CONDUIT    25.048     0  15:53      4.48    1.18    0.91
  83                   CONDUIT    24.323     0  15:53      4.29    1.14    0.95
  84                   CONDUIT    24.187     0  15:53      4.26    1.14    0.96
  85                   CONDUIT    16.147     0  15:53      2.90    0.76    0.91
  86                   CONDUIT    16.234     0  15:53      3.17    0.76    0.81
  87                   CONDUIT    15.714     0  15:53      3.31    0.74    0.73
  88                   CONDUIT    15.008     0  15:52      3.43    0.70    0.69
  89                   CONDUIT    13.856     0  15:52      3.48    0.65    0.65
  90                   CONDUIT    13.714     0  15:52      3.57    0.64    0.60
  91                   CONDUIT    20.350     0  15:52      4.72    0.96    0.66
  92                   CONDUIT    16.621     0  15:52      4.01    0.78    0.76
  93                   CONDUIT    15.308     0  15:52      3.90    0.72    0.71
  94                   CONDUIT    14.098     0  15:51      3.91    0.66    0.66
  95                   CONDUIT    13.031     0  15:52      3.76    0.61    0.62
  96                   CONDUIT    12.788     0  15:52      3.72    0.60    0.58
  97                   CONDUIT    12.593     0  15:52      3.75    0.59    0.55
  98                   CONDUIT    12.088     0  15:52      3.45    1.50    0.57
  99                   CONDUIT    11.534     0  15:52      2.95    1.43    0.63
  100                  CONDUIT    11.235     0  15:52      2.72    1.40    0.69
  101                  CONDUIT    10.990     0  15:52      2.53    1.36    0.73
  102                  CONDUIT    10.687     0  15:51      2.39    0.94    0.76
  103                  CONDUIT    10.426     0  15:52      2.34    0.92    0.77
  104                  CONDUIT    10.206     0  15:52      2.32    0.90    0.77
  105                  CONDUIT    10.170     0  15:51      2.31    0.89    0.76
  106                  CONDUIT    10.234     0  15:51      2.31    0.90    0.75
  107                  CONDUIT    10.165     0  15:51      2.32    0.89    0.73
  108                  CONDUIT    10.137     0  15:51      2.32    0.89    0.72
  109                  CONDUIT     9.125     0  15:51      2.08    0.80    0.70
  110                  CONDUIT     9.169     0  15:50      2.16    0.81    0.68
  111                  CONDUIT     9.168     0  15:50      2.15    0.81    0.66
  112                  CONDUIT     9.156     0  15:50      2.23    0.80    0.66
  113                  CONDUIT     8.942     0  15:50      2.98    0.89    1.00
  114                  CONDUIT     8.954     0  15:50      3.05    0.89    0.98
  115                  CONDUIT     8.998     0  15:50      3.19    0.89    0.94
  116                  CONDUIT     8.988     0  15:50      3.23    0.89    0.93
  117                  CONDUIT     4.465     0  15:49      6.52    1.52    0.96
  118                  CONDUIT     4.460     0  15:49      5.68    1.52    1.00
  119                  CONDUIT     2.659     0  15:47      1.49    0.35    1.00
  120                  CONDUIT     3.256     0  15:48      1.84    0.43    1.00
  121                  CONDUIT     6.375     0  15:50      2.12    0.84    1.00
  122                  CONDUIT     6.220     0  15:50      2.19    0.82    0.95
  123                  CONDUIT     5.818     0  15:50      2.26    0.77    0.86
  124                  CONDUIT     5.570     0  15:50      1.86    0.47    1.00
  125                  CONDUIT     5.426     0  15:55      1.93    1.02    1.00
  126                  CONDUIT     5.426     0  15:55      1.81    1.02    1.00
  127                  CONDUIT     5.594     0  15:50      1.86    1.05    1.00
  128                  CONDUIT     5.670     0  15:49      1.89    1.06    1.00
  129                  CONDUIT     1.765     0  15:49      0.63    0.33    1.00
  130                  CONDUIT     1.233     0  15:50      0.65    0.23    0.77
  131                  CONDUIT     0.117     0  15:50      0.13    0.02    0.29
  132                  CONDUIT     6.142     0  15:50      3.56    0.33    0.48
  133                  CONDUIT     3.030     0  15:53      1.69    0.16    0.39
  134                  CONDUIT     3.056     0  15:53      1.96    0.17    0.33
  135                  CONDUIT     2.942     0  15:50      2.14    0.16    0.27
  136                  CONDUIT     2.946     0  15:50      2.20    0.16    0.24
  137                  CONDUIT     1.417     0  15:51      1.41    0.24    0.24
  138                  CONDUIT     1.328     0  15:50      1.15    1.89    0.62
  139                  CONDUIT     1.244     1  07:05      0.84    1.77    0.77
  140                  CONDUIT     1.246     0  15:47      0.81    1.77    0.85
  141                  CONDUIT     1.352     0  15:47      0.82    1.92    0.90
  142                  CONDUIT     1.488     0  15:46      0.85    2.11    0.95
  143                  CONDUIT     1.650     0  15:46      0.90    2.34    0.98
  144                  CONDUIT     1.901     0  15:46      1.00    2.70    1.00
  145                  CONDUIT     1.895     0  15:46      0.97    2.69    1.00
  146                  CONDUIT     2.573     0  15:50      1.29    3.65    1.00
  147                  CONDUIT     2.541     0  16:00      1.27    3.61    1.00
  148                  CONDUIT     3.299     1  07:06      1.65    4.68    1.00
  149                  CONDUIT     3.938     0  15:52      1.97    5.59    1.00
  150                  CONDUIT     5.105     0  15:50      2.55    1.15    1.00
  151                  CONDUIT     0.725     1  06:39      1.86    0.52    1.00
  152                  CONDUIT     0.739     0  15:45      1.48    1.05    1.00
  153                  CONDUIT     0.740     0  15:45      1.54    1.05    1.00
  154                  CONDUIT     0.740     0  15:45      1.90    1.05    1.00
  155                  CONDUIT     0.713     0  15:45      1.43    1.02    1.00
  156                  CONDUIT     0.714     0  15:45      1.43    1.02    1.00
  157                  CONDUIT     0.706     0  15:45      1.43    1.01    1.00
  158                  CONDUIT     0.702     0  00:01      1.46    1.00    1.00
  159                  CONDUIT     0.741     0  00:00      2.13    1.06    1.00
  160                  CONDUIT    11.656     0  15:52      1.43    0.35    0.77
  161                  CONDUIT    12.549     0  15:51      1.66    0.38    0.72
  162                  CONDUIT     2.608     0  15:51      0.65    0.08    0.68
  163                  CONDUIT     2.773     0  15:52      0.64    0.08    0.63
  164                  CONDUIT     2.907     0  15:52      0.47    0.09    0.59
  165                  CONDUIT     3.185     0  15:51      0.55    0.10    0.55
  166                  CONDUIT     2.753     0  15:51      0.51    0.08    0.51
  167                  CONDUIT     2.668     0  15:52      0.60    0.08    0.45
  168                  CONDUIT     2.789     0  15:50      1.02    0.08    0.39
  169                  CONDUIT     2.582     0  15:50      0.85    0.08    0.34
  170                  CONDUIT     2.652     0  15:50      0.92    0.08    0.30
  171                  CONDUIT     2.500     0  15:50      0.90    0.08    0.25
[...]
  27                      1.00   0.01  0.00  0.00  0.99  0.00  0.00  0.00  0.60  0.00
  28                      1.00   0.00  0.00  0.00  1.00  0.00  0.00  0.00  0.58  0.00
  29                      1.00   0.00  0.00  0.00  1.00  0.00  0.00  0.00  0.59  0.00
  30                      1.00   0.00  0.00  0.00  1.00  0.00  0.00  0.00  0.59  0.00
  31                      1.00   0.00  0.00  0.00  1.00  0.00  0.00  0.00  0.59  0.00
  32                      1.00   0.00  0.00  0.00  1.00  0.00  0.00  0.00  0.59  0.00
  33                      1.00   0.00  0.00  0.00  1.00  0.00  0.00  0.00  0.59  0.00
  34                      1.00   0.00  0.00  0.00  1.00  0.00  0.00  0.00  0.59  0.00
  35                      1.00   0.00  0.00  0.00  1.00  0.00  0.00  0.00  0.60  0.00
  36                      1.00   0.00  0.00  0.00  1.00  0.00  0.00  0.00  0.59  0.00
  37                      1.00   0.00  0.00  0.00  1.00  0.00  0.00  0.00  0.57  0.00
  38                      1.00   0.00  0.00  0.00  1.00  0.00  0.00  0.00  0.21  0.00
  39                      1.00   0.00  0.00  0.00  1.00  0.00  0.00  0.00  0.00  0.00
  40                      1.00   0.00  0.00  0.00  1.00  0.00  0.00  0.00  0.01  0.00
  41                      1.00   0.00  0.00  0.00  0.00  1.00  0.00  0.00  0.98  0.00
  42                      1.00   0.00  0.00  0.00  1.00  0.00  0.00  0.00  0.00  0.00
  43                      1.00   0.00  0.00  0.00  0.04  0.96  0.00  0.00  0.62  0.00
  44                      1.00   0.00  0.00  0.00  0.91  0.09  0.00  0.00  0.98  0.00
  45                      1.00   0.00  0.00  0.00  0.00  1.00  0.00  0.00  0.00  0.00
  46                      1.00   0.00  0.00  0.00  1.00  0.00  0.00  0.00  0.00  0.00
  47                      1.00   0.00  0.00  0.00  1.00  0.00  0.00  0.00  0.83  0.00
  47a                     1.00   0.00  0.00  0.00  1.00  0.00  0.00  0.00  0.02  0.00
  49                      1.00   0.00  0.00  0.00  1.00  0.00  0.00  0.00  0.00  0.00
  50                      1.00   0.00  0.00  0.00  0.12  0.88  0.00  0.00  0.00  0.00
  51                      1.00   0.00  0.00  0.00  1.00  0.00  0.00  0.00  1.00  0.00
  52                      1.00   0.00  0.00  0.00  0.02  0.98  0.00  0.00  0.00  0.00
  53                      1.00   0.00  0.00  0.00  0.01  0.99  0.00  0.00  0.20  0.00
  54                      1.00   0.00  0.00  0.00  1.00  0.00  0.00  0.00  0.00  0.00
  55                      1.00   0.00  0.01  0.00  0.99  0.00  0.00  0.00  0.91  0.00
  56a                     1.00   0.01  0.00  0.00  0.00  0.98  0.00  0.00  0.24  0.00
  57                      1.00   0.01  0.00  0.00  0.99  0.00  0.00  0.00  0.96  0.00
  58                      1.00   0.01  0.00  0.00  0.99  0.00  0.00  0.00  0.00  0.00
  59                      1.00   0.01  0.00  0.00  0.99  0.00  0.00  0.00  0.00  0.00
  60                      1.00   0.01  0.00  0.00  0.99  0.00  0.00  0.00  0.00  0.00
  61                      1.00   0.01  0.00  0.00  0.99  0.00  0.00  0.00  0.00  0.00
  62                      1.00   0.01  0.00  0.00  0.01  0.09  0.00  0.89  0.02  0.00
  63                      1.00   0.01  0.00  0.00  0.72  0.27  0.00  0.00  0.00  0.00
  64                      1.00   0.01  0.00  0.00  0.95  0.04  0.00  0.00  0.83  0.00
  65                      1.00   0.01  0.00  0.00  0.00  0.98  0.00  0.00  0.00  0.00
  66                      1.00   0.01  0.00  0.00  0.99  0.00  0.00  0.00  0.00  0.00
  67                      1.00   0.01  0.00  0.00  0.99  0.00  0.00  0.00  0.00  0.00
  68                      1.00   0.01  0.00  0.00  0.06  0.00  0.00  0.93  0.00  0.00
  70                      1.00   0.01  0.00  0.00  0.02  0.98  0.00  0.00  0.00  0.00
  71                      1.00   0.01  0.00  0.00  0.99  0.00  0.00  0.00  0.00  0.00
  72                      1.00   0.01  0.00  0.00  0.99  0.00  0.00  0.00  0.00  0.00
  73                      1.00   0.01  0.00  0.00  0.99  0.00  0.00  0.00  0.00  0.00
  74                      1.00   0.01  0.00  0.00  0.99  0.00  0.00  0.00  0.00  0.00
  75                      1.00   0.01  0.00  0.00  0.99  0.00  0.00  0.00  0.90  0.00
  76                      1.00   0.01  0.00  0.00  0.99  0.00  0.00  0.00  0.92  0.00
  77                      1.00   0.01  0.00  0.00  0.99  0.00  0.00  0.00  0.98  0.00
  78                      1.00   0.01  0.00  0.00  0.39  0.60  0.00  0.00  0.00  0.00
  79                      1.00   0.01  0.00  0.00  0.99  0.00  0.00  0.00  0.99  0.00
  80                      1.00   0.00  0.00  0.00  0.00  0.99  0.00  0.00  0.89  0.00
  81                      1.00   0.00  0.00  0.00  0.00  0.99  0.00  0.00  0.26  0.00
  82                      1.00   0.00  0.00  0.00  0.00  0.99  0.00  0.00  0.91  0.00
  83                      1.00   0.00  0.00  0.00  0.00  0.99  0.00  0.00  0.60  0.00
  84                      1.00   0.00  0.00  0.00  0.00  0.99  0.00  0.00  0.60  0.00
  85                      1.00   0.00  0.00  0.00  0.05  0.94  0.00  0.00  0.38  0.00
  86                      1.00   0.00  0.00  0.00  0.01  0.99  0.00  0.00  0.48  0.00
  87                      1.00   0.00  0.00  0.00  0.00  0.99  0.00  0.00  0.56  0.00
  88                      1.00   0.00  0.00  0.00  0.00  1.00  0.00  0.00  0.59  0.00
  89                      1.00   0.00  0.00  0.00  0.00  1.00  0.00  0.00  0.58  0.00
  90                      1.00   0.00  0.00  0.00  0.00  1.00  0.00  0.00  0.60  0.00
  91                      1.00   0.00  0.29  0.00  0.50  0.20  0.00  0.00  0.59  0.00
  92                      1.00   0.30  0.00  0.00  0.08  0.62  0.00  0.00  0.60  0.00
  93                      1.00   0.30  0.00  0.00  0.09  0.62  0.00  0.00  0.61  0.00
  94                      1.00   0.30  0.00  0.00  0.09  0.62  0.00  0.00  0.60  0.00
  95                      1.00   0.30  0.00  0.00  0.09  0.61  0.00  0.00  0.60  0.00
  96                      1.00   0.30  0.00  0.00  0.09  0.61  0.00  0.00  0.59  0.00
  97                      1.00   0.30  0.00  0.00  0.09  0.62  0.00  0.00  0.58  0.00
  98                      1.00   0.30  0.00  0.00  0.57  0.14  0.00  0.00  0.00  0.00
  99                      1.00   0.30  0.00  0.00  0.70  0.00  0.00  0.00  0.25  0.00
  100                     1.00   0.30  0.00  0.00  0.70  0.00  0.00  0.00  0.27  0.00
  101                     1.00   0.30  0.00  0.00  0.70  0.00  0.00  0.00  0.27  0.00
  102                     1.00   0.30  0.00  0.00  0.70  0.00  0.00  0.00  0.43  0.00
  103                     1.00   0.30  0.00  0.00  0.70  0.00  0.00  0.00  0.44  0.00
  104                     1.00   0.30  0.00  0.00  0.70  0.00  0.00  0.00  0.46  0.00
  105                     1.00   0.30  0.00  0.00  0.70  0.00  0.00  0.00  0.49  0.00
  106                     1.00   0.30  0.00  0.00  0.70  0.00  0.00  0.00  0.52  0.00
  107                     1.00   0.30  0.00  0.00  0.70  0.00  0.00  0.00  0.55  0.00
  108                     1.00   0.30  0.00  0.00  0.70  0.00  0.00  0.00  0.57  0.00
  109                     1.00   0.30  0.00  0.00  0.70  0.00  0.00  0.00  0.47  0.00
  110                     1.00   0.30  0.00  0.00  0.70  0.00  0.00  0.00  0.52  0.00
  111                     1.00   0.30  0.00  0.00  0.70  0.00  0.00  0.00  0.56  0.00
  112                     1.00   0.30  0.00  0.00  0.70  0.00  0.00  0.00  0.60  0.00
  113                     1.00   0.30  0.00  0.00  0.70  0.00  0.00  0.00  0.65  0.00
  114                     1.00   0.30  0.00  0.00  0.50  0.20  0.00  0.00  0.60  0.00
  115                     1.00   0.30  0.00  0.00  0.50  0.20  0.00  0.00  0.62  0.00
  116                     1.00   0.30  0.00  0.00  0.50  0.20  0.00  0.00  0.62  0.00
  117                     1.00   0.30  0.00  0.00  0.00  0.70  0.00  0.00  0.04  0.00
  118                     1.00   0.30  0.00  0.00  0.04  0.67  0.00  0.00  0.63  0.00
  119                     1.00   0.30  0.00  0.00  0.70  0.00  0.00  0.00  0.65  0.00
  120                     1.00   0.30  0.00  0.00  0.70  0.00  0.00  0.00  0.64  0.00
  121                     1.00   0.30  0.00  0.00  0.70  0.00  0.00  0.00  0.62  0.00
  122                     1.00   0.30  0.00  0.00  0.70  0.00  0.00  0.00  0.64  0.00
  123                     1.00   0.30  0.00  0.00  0.70  0.00  0.00  0.00  0.65  0.00
  124                     1.00   0.30  0.00  0.00  0.70  0.00  0.00  0.00  0.66  0.00
  125                     1.00   0.30  0.00  0.00  0.70  0.00  0.00  0.00  0.00  0.00
  126                     1.00   0.30  0.00  0.00  0.70  0.00  0.00  0.00  0.64  0.00
  127                     1.00   0.30  0.00  0.00  0.70  0.00  0.00  0.00  0.62  0.00
  128                     1.00   0.30  0.00  0.00  0.70  0.00  0.00  0.00  0.63  0.00
  129                     1.00   0.30  0.00  0.00  0.70  0.00  0.00  0.00  0.63  0.00
  130                     1.00   0.30  0.00  0.00  0.70  0.00  0.00  0.00  0.59  0.00
  131                     1.00   0.30  0.10  0.00  0.60  0.00  0.00  0.00  0.67  0.00
  132                     1.00   0.00  0.00  0.00  0.06  0.94  0.00  0.00  0.94  0.00
  133                     1.00   0.00  0.00  0.00  0.11  0.88  0.00  0.00  0.00  0.00
  134                     1.00   0.00  0.00  0.00  0.03  0.97  0.00  0.00  0.00  0.00
  135                     1.00   0.00  0.00  0.00  0.00  0.99  0.00  0.00  0.09  0.00
  136                     1.00   0.00  0.00  0.00  0.00  1.00  0.00  0.00  0.48  0.00
  137                     1.00   0.00  0.00  0.00  1.00  0.00  0.00  0.00  0.00  0.00
  138                     1.00   0.00  0.00  0.00  1.00  0.00  0.00  0.00  0.00  0.00
  139                     1.00   0.00  0.00  0.00  1.00  0.00  0.00  0.00  0.00  0.00
  140                     1.00   0.00  0.00  0.00  1.00  0.00  0.00  0.00  0.00  0.00
  141                     1.00   0.00  0.00  0.00  1.00  0.00  0.00  0.00  0.00  0.00
  142                     1.00   0.00  0.00  0.00  1.00  0.00  0.00  0.00  0.00  0.00
  143                     1.00   0.00  0.00  0.00  1.00  0.00  0.00  0.00  0.00  0.00
  144                     1.00   0.00  0.00  0.00  1.00  0.00  0.00  0.00  0.00  0.00
  145                     1.00   0.00  0.00  0.00  1.00  0.00  0.00  0.00  0.00  0.00
  146                     1.00   0.00  0.00  0.00  1.00  0.00  0.00  0.00  0.00  0.00
  147                     1.00   0.00  0.00  0.00  1.00  0.00  0.00  0.00  0.00  0.00
  148                     1.00   0.00  0.00  0.00  1.00  0.00  0.00  0.00  0.00  0.00
  149                     1.00   0.00  0.00  0.00  1.00  0.00  0.00  0.00  0.00  0.00
  150                     1.00   0.00  0.00  0.00  1.00  0.00  0.00  0.00  0.69  0.00
  151                     1.00   0.00  0.00  0.00  1.00  0.00  0.00  0.00  0.05  0.00
  152                     1.00   0.00  0.00  0.00  1.00  0.00  0.00  0.00  0.00  0.00
  153                     1.00   0.00  0.00  0.00  1.00  0.00  0.00  0.00  0.00  0.00
  154                     1.00   0.00  0.00  0.00  1.00  0.00  0.00  0.00  0.00  0.00
  155                     1.00   0.00  0.00  0.00  1.00  0.00  0.00  0.00  0.00  0.00
  156                     1.00   0.00  0.00  0.00  1.00  0.00  0.00  0.00  0.00  0.00
  157                     1.00   0.00  0.00  0.00  1.00  0.00  0.00  0.00  0.00  0.00
  158                     1.00   0.00  0.00  0.00  1.00  0.00  0.00  0.00  0.00  0.00
  159                     1.00   0.00  0.00  0.00  1.00  0.00  0.00  0.00  0.00  0.00
  160                     1.00   0.00  0.00  0.00  1.00  0.00  0.00  0.00  0.00  0.00
  161                     1.00   0.00  0.02  0.00  0.98  0.00  0.00  0.00  0.11  0.00
  162                     1.00   0.02  0.28  0.00  0.70  0.00  0.00  0.00  0.44  0.00
  163                     1.00   0.30  0.00  0.00  0.70  0.00  0.00  0.00  0.50  0.00
  164                     1.00   0.30  0.00  0.00  0.70  0.00  0.00  0.00  0.54  0.00
  165                     1.00   0.30  0.00  0.00  0.70  0.00  0.00  0.00  0.55  0.00
  166                     1.00   0.30  0.00  0.00  0.70  0.00  0.00  0.00  0.61  0.00
  167                     1.00   0.30  0.00  0.00  0.70  0.00  0.00  0.00  0.62  0.00
  168                     1.00   0.30  0.00  0.00  0.70  0.00  0.00  0.00  0.59  0.00
  169                     1.00   0.30  0.00  0.00  0.70  0.00  0.00  0.00  0.65  0.00
  170                     1.00   0.30  0.00  0.00  0.70  0.00  0.00  0.00  0.60  0.00
  171                     1.00   0.30  0.00  0.00  0.70  0.00  0.00  0.00  0.62  0.00
  172                     1.00   0.00  0.02  0.00  0.98  0.00  0.00  0.00  0.00  0.00
  173                     1.00   0.02  0.28  0.00  0.70  0.00  0.00  0.00  0.66  0.00
  174                     1.00   0.30  0.19  0.00  0.51  0.00  0.00  0.00  0.68  0.00
  47b                     1.00   0.00  0.00  0.00  0.08  0.92  0.00  0.00  0.00  0.00
  48                      1.00   0.00  0.00  0.00  1.00  0.00  0.00  0.00  0.00  0.00
  56                      1.00   0.01  0.00  0.00  0.98  0.00  0.00  0.00  0.00  0.00
  80-a                    1.00   0.00  0.00  0.00  0.00  0.99  0.00  0.00  0.86  0.00
  81-a                    1.00   0.00  0.00  0.00  0.00  0.99  0.00  0.00  0.99  0.00
  82-a                    1.00   0.00  0.00  0.00  0.00  1.00  0.00  0.00  0.27  0.00
  83-a                    1.00   0.00  0.00  0.00  0.00  1.00  0.00  0.00  0.60  0.00
  84-a                    1.00   0.00  0.00  0.00  0.00  1.00  0.00  0.00  0.59  0.00
  85-a                    1.00   0.00  0.00  0.00  0.08  0.91  0.00  0.00  0.00  0.00
  86-a                    1.00   0.00  0.00  0.00  0.01  0.99  0.00  0.00  0.44  0.00
  87-a                    1.00   0.00  0.00  0.00  0.00  0.99  0.00  0.00  0.55  0.00
  88-a                    1.00   0.00  0.00  0.00  0.00  1.00  0.00  0.00  0.59  0.00
  89-a                    1.00   0.00  0.00  0.00  0.00  1.00  0.00  0.00  0.51  0.00
  90-a                    1.00   0.00  0.00  0.00  0.00  1.00  0.00  0.00  0.59  0.00
  69                      1.00   0.01  0.00  0.00  0.98  0.01  0.00  0.00  0.00  0.00
  
  
  *************************
  Conduit Surcharge Summary
  *************************
  
  ----------------------------------------------------------------------------
                                                           Hours        Hours 
                         --------- Hours Full --------   Above Full   Capacity
  Conduit                Both Ends  Upstream  Dnstream   Normal Flow   Limited
  ----------------------------------------------------------------------------
  2                           0.01      0.01      0.01      0.01         0.01
  49                          0.94      0.94      1.05      0.01         0.01
  50                          0.50      0.78      0.50      2.33         0.50
  52                          0.01      0.28      0.01      0.30         0.01
  54                          0.26      0.26      0.41      0.01         0.01
  55                          0.01      0.01      0.01      0.01         0.01
  57                          0.01      0.01      0.26      0.01         0.01
  58                          0.01      0.01      0.01      0.17         0.01
  59                          0.01      0.01      0.01      0.07         0.01
  60                          0.01      0.01      0.01      0.43         0.01
  61                          0.01      0.01      0.01      2.95         0.01
  63                          0.01      0.01      0.01      0.74         0.01
  65                          0.01      0.18      0.01      0.01         0.01
  67                          0.01      0.01      0.01      1.15         0.01
  70                          0.01      0.01      0.01      0.13         0.01
  72                          0.01      0.01      0.01      2.90         0.01
  73                          0.01      0.01      0.01      3.76         0.01
  74                          0.01      0.01      0.01      4.39         0.01
  78                          0.01      0.01      0.01      2.43         0.01
  81                          0.01      0.01      0.01      0.01         0.01
  82                          0.01      0.01      0.01      0.01         0.01
  83                          0.01      0.01      0.01      0.01         0.01
  84                          0.01      0.01      0.01      0.01         0.01
  98                          0.01      0.01      0.01      0.09         0.01
  99                          0.01      0.01      0.01      0.09         0.01
  100                         0.01      0.01      0.01      0.09         0.01
  101                         0.01      0.01      0.01      0.09         0.01
  113                         0.02      0.02      0.11      0.01         0.01
  114                         0.01      0.01      0.02      0.01         0.01
  117                         0.01      0.79      0.01      1.03         0.01
  118                         0.79      0.94      0.79      1.03         0.79
  119                         0.73      0.73      0.94      0.01         0.01
  120                         0.58      0.58      0.73      0.01         0.01
  121                         0.02      0.02      0.58      0.01         0.01
  122                         0.01      0.01      0.02      0.01         0.01
  124                         0.44      0.44      0.94      0.01         0.01
  125                         0.36      0.36      0.44      0.10         0.10
  126                         0.30      0.30      0.36      0.10         0.11
  127                         0.26      0.26      0.30      0.11         0.12
  128                         0.24      0.24      0.26      0.12         0.11
  129                         0.01      0.01      0.24      0.01         0.01
  138                         0.01      0.01      0.01     32.18         0.01
  139                         0.01      0.01      0.01     32.18         0.01
  140                         0.01      0.01      0.01     32.18         0.01
  141                         0.01      0.01      0.01     32.19         0.01
  142                         0.01      0.01      0.01     32.20         0.01
  143                         0.01      0.01      0.01     32.20         0.01
  144                         0.01      4.66      0.01     32.21         0.01
  145                         4.66      4.98      4.66     32.21         4.66
  146                         4.98      5.28      4.98     32.22         4.98
  147                         5.28      5.61      5.28     32.22         5.28
  148                         5.61      6.20      5.61     32.23         5.60
  149                         6.20      6.32      6.20     32.12         6.18
  150                         1.70      1.70      6.32      0.04         0.04
  151                         0.55      0.55      1.70      0.01         0.01
  152                        10.63     47.70     10.63     11.06         8.69
  153                        47.70     47.71     47.70     11.19        11.20
  154                        47.71     47.71     47.71     11.29        11.29
  155                        47.71     47.72     47.71      3.74         3.73
  156                        47.72     47.72     47.72      0.26         0.25
  157                        47.72     47.73     47.72      0.01         0.01
  158                         0.01      0.01     47.73      0.01         0.01
  159                         0.01      0.01      0.01      0.01         0.01
  47b                         0.01      0.68      0.01      0.01         0.01
  48                          0.01      0.53      0.01      0.01         0.01
  56                          0.01      0.17      0.01      4.46         0.01
  

  Analysis begun on:  Wed Nov 10 14:21:44 2021
  Analysis ended on:  Wed Nov 10 14:21:59 2021
  Total elapsed time: 00:00:15